data_cif

_audit_creation_method             'generated by GULP'

_symmetry_space_group_name_H-M     'P 1'
_symmetry_Int_Tables_number        1
_symmetry_cell_setting             triclinic

_cell_length_a                       15.3877
_cell_length_b                       15.3877
_cell_length_c                       15.3877
_cell_angle_alpha                   90.0000
_cell_angle_beta                    90.0000
_cell_angle_gamma                   90.0000

loop_
_atom_site_label
_atom_site_fract_x
_atom_site_fract_y
_atom_site_fract_z
_atom_site_occupancy
  C           0.50098      0.38644      0.64183  1.0000
  C           0.99458      0.46242      0.67353  1.0000
  C           0.82895      0.88866      0.62381  1.0000
  C           0.49762      0.54089      0.18779  1.0000
  C           0.01059      0.02862      0.58091  1.0000
  C           0.64003      0.33106      0.68107  1.0000
  C           0.03992      0.08356      0.13859  1.0000
  C           0.60837      0.33505      0.42802  1.0000
  C           0.31700      0.31106      0.55810  1.0000
  C           0.77520      0.54295      0.29519  1.0000
  C           0.08946      0.19834      0.00786  1.0000
  C           0.06904      0.02831      0.50522  1.0000
  C           0.80188      0.25320      0.49023  1.0000
  C           0.15437      0.12590      0.24512  1.0000
  C           0.26195      0.67774      0.37210  1.0000
  C           0.40084      0.17702      0.70162  1.0000
  C           0.68404      0.47769      0.88915  1.0000
  C           0.80335      0.14232      0.80492  1.0000
  C           0.16277      0.19191      0.94654  1.0000
  C           0.62154      0.49488      0.04073  1.0000
  C           0.62674      0.81755      0.64057  1.0000
  C           0.27598      0.75017      0.15977  1.0000
  C           0.71754      0.71162      0.57800  1.0000
  C           0.75425      0.81727      0.12998  1.0000
  C           0.62190      0.91572      0.32056  1.0000
  C           0.67493      0.12207      0.26442  1.0000
  C           0.99289      0.29884      0.46669  1.0000
  C           0.48371      0.22259      0.82288  1.0000
  C           0.58760      0.46123      0.76102  1.0000
  C           0.01952      0.04248      0.42616  1.0000
  C           0.11728      0.45916      0.53556  1.0000
  C           0.35446      0.93122      0.39768  1.0000
  C           0.73853      0.15799      0.32505  1.0000
  C           0.01761      0.40498      0.75730  1.0000
  C           0.08071      0.00286      0.15084  1.0000
  C           0.28861      0.84408      0.68468  1.0000
  C           0.57401      0.30424      0.20366  1.0000
  C           0.92593      0.68911      0.62719  1.0000
  C           0.25543      0.08274      0.86903  1.0000
  C           0.10722      0.92703      0.81739  1.0000
  C           0.17893      0.45785      0.90724  1.0000
  C           0.71815      0.05378      0.43979  1.0000
  C           0.28997      0.18583      0.40961  1.0000
  C           0.40787      0.21606      0.29863  1.0000
  C           0.89321      0.14053      0.58736  1.0000
  C           0.78493      0.34138      0.13181  1.0000
  C           0.20328      0.68815      0.86659  1.0000
  C           0.47953      0.09156      0.90121  1.0000
  C           0.34081      0.80978      0.89065  1.0000
  C           0.15390      0.90755      0.45391  1.0000
  C           0.84989      0.69994      0.20124  1.0000
  C           0.83520      0.26563      0.40554  1.0000
  C           0.21481      0.01736      0.13290  1.0000
  C           0.47459      0.31542      0.07104  1.0000
  C           0.74601      0.97548      0.47856  1.0000
  C           0.15223      0.74940      0.47306  1.0000
  C           0.51274      0.95876      0.67202  1.0000
  C           0.43161      0.12025      0.32116  1.0000
  C           0.02566      0.40384      0.32755  1.0000
  C           0.95400      0.80822      0.42529  1.0000
  C           0.52491      0.45104      0.15796  1.0000
  C           0.05047      0.69814      0.53517  1.0000
  C           0.87932      0.73552      0.95419  1.0000
  C           0.08894      0.31004      0.45979  1.0000
  C           0.48108      0.74091      0.56701  1.0000
  C           0.37635      0.43470      0.95406  1.0000
  C           0.38741      0.43463      0.28276  1.0000
  C           0.78201      0.50601      0.10533  1.0000
  C           0.19148      0.92731      0.30632  1.0000
  C           0.77794      0.41117      0.19348  1.0000
  C           0.39943      0.35530      0.89385  1.0000
  C           0.88721      0.09595      0.27839  1.0000
  C           0.23037      0.81837      0.59936  1.0000
  C           0.05357      0.53060      0.85498  1.0000
  C           0.44525      0.46336      0.61514  1.0000
  C           0.16145      0.42342      0.00262  1.0000
  C           0.11776      0.12861      0.68861  1.0000
  C           0.37528      0.59879      0.43113  1.0000
  C           0.64078      0.73989      0.87670  1.0000
  C           0.07955      0.98254      0.89981  1.0000
  C           0.20569      0.72957      0.30169  1.0000
  C           0.61765      0.45842      0.12378  1.0000
  C           0.25640      0.87484      0.52570  1.0000
  C           0.83455      0.45919      0.25985  1.0000
  C           0.99908      0.97733      0.28051  1.0000
  C           0.25640      0.52993      0.32286  1.0000
  C           0.25982      0.25198      0.24604  1.0000
  C           0.02672      0.52290      0.20858  1.0000
  C           0.05784      0.01708      0.34739  1.0000
  C           0.79977      0.92043      0.42432  1.0000
  C           0.12669      0.72718      0.13982  1.0000
  C           0.34361      0.68551      0.63422  1.0000
  C           0.46798      0.81651      0.35094  1.0000
  C           0.91540      0.89454      0.65621  1.0000
  C           0.43839      0.49398      0.76979  1.0000
  C           0.82815      0.12279      0.66222  1.0000
  C           0.51096      0.00318      0.93786  1.0000
  C           0.16411      0.44805      0.74158  1.0000
  C           0.83948      0.61078      0.54016  1.0000
  C           0.70277      0.21104      0.60834  1.0000
  C           0.09711      0.96697      0.73497  1.0000
  C           0.25519      0.93229      0.72286  1.0000
  C           0.50758      0.75252      0.96775  1.0000
  C           0.70182      0.47488      0.17080  1.0000
  C           0.04579      0.84523      0.00286  1.0000
  C           0.74549      0.74127      0.06184  1.0000
  C           0.18277      0.01291      0.60491  1.0000
  C           0.83643      0.27990      0.64304  1.0000
  C           0.48146      0.98054      0.04197  1.0000
  C           0.29517      0.10113      0.67037  1.0000
  C           0.84497      0.15574      0.21831  1.0000
  C           0.18520      0.70101      0.95555  1.0000
  C           0.26267      0.93474      0.16255  1.0000
  C           0.38023      0.61380      0.26883  1.0000
  C           0.11730      0.21458      0.09833  1.0000
  C           0.20628      0.84162      0.95375  1.0000
  C           0.11788      0.54451      0.39067  1.0000
  C           0.19364      0.10112      0.93962  1.0000
  C           0.53155      0.16678      0.88252  1.0000
  C           0.48569      0.02154      0.21349  1.0000
  C           0.63577      0.48520      0.60053  1.0000
  C           0.56497      0.57957      0.25449  1.0000
  C           0.74775      0.97422      0.73736  1.0000
  C           0.76411      0.42152      0.68470  1.0000
  C           0.14645      0.16766      0.33060  1.0000
  C           0.07082      0.79258      0.88788  1.0000
  C           0.39569      0.74761      0.75689  1.0000
  C           0.88098      0.79095      0.20469  1.0000
  C           0.92230      0.91725      0.31190  1.0000
  C           0.74870      0.97257      0.21662  1.0000
  C           0.02094      0.12854      0.99185  1.0000
  C           0.20085      0.37308      0.33748  1.0000
  C           0.71469      0.28376      0.12763  1.0000
  C           0.35242      0.95183      0.95135  1.0000
  C           0.61694      0.86015      0.72746  1.0000
  C           0.92458      0.92073      0.90810  1.0000
  C           0.46069      0.61471      0.80987  1.0000
  C           0.70082      0.52143      0.44836  1.0000
  C           0.41579      0.77106      0.09056  1.0000
  C           0.53160      0.85982      0.85771  1.0000
  C           0.14854      0.65373      0.27157  1.0000
  C           0.83087      0.21921      0.57524  1.0000
  C           0.86355      0.95895      0.36969  1.0000
  C           0.05995      0.94361      0.21443  1.0000
  C           0.78898      0.11879      0.15318  1.0000
  C           0.84111      0.34585      0.80293  1.0000
  C           0.37349      0.73788      0.84639  1.0000
  C           0.16798      0.94402      0.67549  1.0000
  C           0.15786      0.00176      0.47845  1.0000
  C           0.07916      0.68012      0.43909  1.0000
  C           0.99295      0.49912      0.30193  1.0000
  C           0.29526      0.14077      0.01005  1.0000
  C           0.12070      0.87242      0.07113  1.0000
  C           0.84515      0.54664      0.71400  1.0000
  C           0.33216      0.67462      0.47950  1.0000
  C           0.39738      0.01268      0.99996  1.0000
  C           0.66187      0.42451      0.81070  1.0000
  C           0.52555      0.02001      0.59902  1.0000
  C           0.24929      0.92263      0.82366  1.0000
  C           0.13784      0.54092      0.72235  1.0000
  C           0.89298      0.50524      0.97703  1.0000
  C           0.41017      0.74853      0.62817  1.0000
  C           0.65869      0.21420      0.79332  1.0000
  C           0.00476      0.39306      0.09558  1.0000
  C           0.25358      0.75917      0.73110  1.0000
  C           0.48271      0.86873      0.20316  1.0000
  C           0.03993      0.82767      0.40560  1.0000
  C           0.00304      0.45287      0.83994  1.0000
  C           0.76827      0.63782      0.59037  1.0000
  C           0.56377      0.17595      0.16170  1.0000
  C           0.30717      0.02809      0.39447  1.0000
  C           0.04143      0.08388      0.73975  1.0000
  C           0.91968      0.81095      0.51666  1.0000
  C           0.23879      0.58001      0.58441  1.0000
  C           0.79105      0.70549      0.81359  1.0000
  C           0.16549      0.40647      0.83094  1.0000
  C           0.04075      0.23272      0.23896  1.0000
  C           0.95129      0.25508      0.03964  1.0000
  C           0.19079      0.87283      0.37982  1.0000
  C           0.06486      0.85238      0.57917  1.0000
  C           0.67473      0.71677      0.39669  1.0000
  C           0.97220      0.63014      0.10123  1.0000
  C           0.07999      0.54844      0.56687  1.0000
  C           0.64801      0.04460      0.85191  1.0000
  C           0.71994      0.27258      0.53420  1.0000
  C           0.29775      0.99025      0.87490  1.0000
  C           0.60388      0.24164      0.39352  1.0000
  C           0.73420      0.43644      0.41215  1.0000
  C           0.97271      0.30354      0.56036  1.0000
  C           0.66760      0.37973      0.35878  1.0000
  C           0.31966      0.84635      0.45533  1.0000
  C           0.19033      0.32896      0.00900  1.0000
  C           0.75760      0.92251      0.89693  1.0000
  C           0.26205      0.49554      0.56300  1.0000
  C           0.55192      0.60843      0.83035  1.0000
  C           0.89258      0.84488      0.04901  1.0000
  C           0.96957      0.51811      0.45963  1.0000
  C           0.66241      0.04865      0.09820  1.0000
  C           0.40683      0.87501      0.50376  1.0000
  C           0.44222      0.91356      0.71247  1.0000
  C           0.53147      0.82997      0.42745  1.0000
  C           0.22180      0.07748      0.20957  1.0000
  C           0.68513      0.90921      0.24615  1.0000
  C           0.63571      0.54033      0.51475  1.0000
  C           0.45064      0.34893      0.48434  1.0000
  C           0.00019      0.13738      0.88916  1.0000
  C           0.16106      0.16700      0.52714  1.0000
  C           0.42554      0.19753      0.19920  1.0000
  C           0.09698      0.83678      0.48893  1.0000
  C           0.29026      0.88496      0.09085  1.0000
  C           0.61754      0.99211      0.94104  1.0000
  C           0.79800      0.97908      0.82383  1.0000
  C           0.58840      0.51866      0.32069  1.0000
  C           0.12798      0.78333      0.96832  1.0000
  C           0.71447      0.06291      0.18938  1.0000
  C           0.12397      0.50370      0.22181  1.0000
  C           0.45515      0.41089      0.09213  1.0000
  C           0.58231      0.66751      0.27247  1.0000
  C           0.48983      0.66479      0.94929  1.0000
  C           0.75926      0.94328      0.65017  1.0000
  C           0.92549      0.29434      0.40366  1.0000
  C           0.97529      0.86063      0.59287  1.0000
  C           0.36340      0.01976      0.80517  1.0000
  C           0.17383      0.63682      0.41239  1.0000
  C           0.78577      0.07089      0.86684  1.0000
  C           0.65888      0.01770      0.75488  1.0000
  C           0.58868      0.89204      0.96983  1.0000
  C           0.47716      0.28188      0.31193  1.0000
  C           0.45962      0.26080      0.50536  1.0000
  C           0.54698      0.30460      0.99897  1.0000
  C           0.66079      0.58448      0.04289  1.0000
  C           0.44990      0.66362      0.41246  1.0000
  C           0.60562      0.27288      0.74390  1.0000
  C           0.32211      0.75735      0.41608  1.0000
  C           0.79316      0.74109      0.97623  1.0000
  C           0.90627      0.76498      0.35403  1.0000
  C           0.31548      0.20301      0.92036  1.0000
  C           0.32047      0.60020      0.34472  1.0000
  C           0.32136      0.01774      0.50119  1.0000
  C           0.79148      0.28119      0.73817  1.0000
  C           0.75857      0.57236      0.66318  1.0000
  C           0.36183      0.34688      0.71537  1.0000
  C           0.28015      0.59980      0.75463  1.0000
  C           0.01217      0.00411      0.68695  1.0000
  C           0.26817      0.18655      0.73120  1.0000
  C           0.24125      0.79162      0.23487  1.0000
  C           0.23403      0.60845      0.83642  1.0000
  C           0.93714      0.03655      0.23316  1.0000
  C           0.23408      0.88618      0.23519  1.0000
  C           0.12420      0.69075      0.60381  1.0000
  C           0.68292      0.00528      0.02394  1.0000
  C           0.69813      0.63418      0.17792  1.0000
  C           0.97013      0.73494      0.56191  1.0000
  C           0.51997      0.63271      0.13582  1.0000
  C           0.49688      0.79781      0.26011  1.0000
  C           0.04378      0.56835      0.93904  1.0000
  C           0.41196      0.17221      0.79140  1.0000
  C           0.93274      0.44072      0.90201  1.0000
  C           0.53827      0.86041      0.13030  1.0000
  C           0.84704      0.36335      0.06049  1.0000
  C           0.47915      0.02546      0.51191  1.0000
  C           0.89605      0.94994      0.81882  1.0000
  C           0.78664      0.11338      0.06099  1.0000
  C           0.60649      0.79332      0.15314  1.0000
  C           0.98483      0.22889      0.69637  1.0000
  C           0.84232      0.41899      0.73823  1.0000
  C           0.54151      0.63396      0.41904  1.0000
  C           0.63725      0.31816      0.51978  1.0000
  C           0.73374      0.14036      0.65783  1.0000
  C           0.53695      0.82752      0.77274  1.0000
  C           0.27252      0.45939      0.21496  1.0000
  C           0.40780      0.09605      0.84163  1.0000
  C           0.64165      0.73381      0.08403  1.0000
  C           0.63173      0.45670      0.96110  1.0000
  C           0.86334      0.39519      0.32808  1.0000
  C           0.84385      0.85198      0.13695  1.0000
  C           0.53878      0.95936      0.36730  1.0000
  C           0.33263      0.50158      0.17038  1.0000
  C           0.35127      0.44785      0.67151  1.0000
  C           0.74126      0.75077      0.89496  1.0000
  C           0.56027      0.74274      0.22589  1.0000
  C           0.01365      0.91500      0.93568  1.0000
  C           0.21954      0.88230      0.03314  1.0000
  C           0.02474      0.50886      0.00320  1.0000
  C           0.76372      0.58711      0.38544  1.0000
  C           0.05916      0.67129      0.79697  1.0000
  C           0.51533      0.28024      0.75896  1.0000
  C           0.01912      0.54988      0.38052  1.0000
  C           0.52933      0.65751      0.57616  1.0000
  C           0.19374      0.15233      0.42240  1.0000
  C           0.51616      0.88914      0.04094  1.0000
  C           0.71140      0.55867      0.22665  1.0000
  C           0.45609      0.16362      0.01499  1.0000
  C           0.90257      0.54065      0.26051  1.0000
  C           0.38932      0.83128      0.68956  1.0000
  C           0.08892      0.58476      0.78839  1.0000
  C           0.66130      0.68238      0.72564  1.0000
  C           0.57742      0.52007      0.68298  1.0000
  C           0.98679      0.08428      0.06282  1.0000
  C           0.73362      0.79986      0.52858  1.0000
  C           0.35003      0.07476      0.31661  1.0000
  C           0.11211      0.81680      0.15175  1.0000
  C           0.76991      0.68690      0.15311  1.0000
  C           0.18976      0.39545      0.66983  1.0000
  C           0.54958      0.01324      0.44062  1.0000
  C           0.69224      0.24702      0.02845  1.0000
  C           0.83497      0.03716      0.01783  1.0000
  C           0.13096      0.46378      0.44115  1.0000
  C           0.37487      0.23156      0.55261  1.0000
  C           0.81580      0.75435      0.38073  1.0000
  C           0.18225      0.28810      0.10261  1.0000
  C           0.44853      0.53109      0.68983  1.0000
  C           0.70601      0.59902      0.73826  1.0000
  C           0.38935      0.10193      0.00335  1.0000
  C           0.39177      0.52554      0.48613  1.0000
  C           0.03195      0.72791      0.72879  1.0000
  C           0.82508      0.83375      0.54729  1.0000
  C           0.45650      0.66947      0.72399  1.0000
  C           0.91347      0.03121      0.07416  1.0000
  C           0.14572      0.59156      0.62958  1.0000
  C           0.64835      0.59973      0.94688  1.0000
  C           0.90706      0.14460      0.93342  1.0000
  C           0.46891      0.50441      0.52788  1.0000
  C           0.45071      0.81914      0.01207  1.0000
  C           0.36301      0.37895      0.51438  1.0000
  C           0.88817      0.34840      0.89176  1.0000
  C           0.53255      0.47733      0.46709  1.0000
  C           0.90981      0.82950      0.28132  1.0000
  C           0.20739      0.73012      0.55915  1.0000
  C           0.72862      0.33902      0.68486  1.0000
  C           0.75732      0.68439      0.38023  1.0000
  C           0.77154      0.95852      0.99503  1.0000
  C           0.52573      0.38796      0.44936  1.0000
  C           0.70876      0.30906      0.29487  1.0000
  C           0.74808      0.20906      0.78261  1.0000
  C           0.07038      0.82915      0.31751  1.0000
  C           0.33376      0.80390      0.11180  1.0000
  C           0.72736      0.48602      0.63602  1.0000
  C           0.02641      0.65641      0.95770  1.0000
  C           0.86424      0.90104      0.98009  1.0000
  C           0.16354      0.55805      0.29843  1.0000
  C           0.97893      0.28545      0.89484  1.0000
  C           0.44354      0.11538      0.49344  1.0000
  C           0.37553      0.27040      0.93665  1.0000
  C           0.61702      0.64133      0.10993  1.0000
  C           0.71979      0.84674      0.86545  1.0000
  C           0.16482      0.19217      0.73674  1.0000
  C           0.18011      0.30779      0.26888  1.0000
  C           0.57970      0.15598      0.25768  1.0000
  C           0.21314      0.70264      0.10993  1.0000
  C           0.82868      0.42501      0.40855  1.0000
  C           0.37971      0.86285      0.95311  1.0000
  C           0.68530      0.83839      0.18573  1.0000
  C           0.16169      0.31570      0.84798  1.0000
  C           0.46162      0.32929      0.70174  1.0000
  C           0.21276      0.47105      0.07571  1.0000
  C           0.98789      0.69501      0.03541  1.0000
  C           0.93786      0.71789      0.71554  1.0000
  C           0.86877      0.12673      0.74432  1.0000
  C           0.44094      0.91833      0.34804  1.0000
  C           0.96141      0.27422      0.24605  1.0000
  C           0.95396      0.22042      0.61659  1.0000
  C           0.01587      0.22381      0.82498  1.0000
  C           0.62567      0.07982      0.46541  1.0000
  C           0.12170      0.83617      0.82282  1.0000
  C           0.62634      0.03684      0.56343  1.0000
  C           0.31248      0.51184      0.73529  1.0000
  C           0.56096      0.53688      0.40526  1.0000
  C           0.31096      0.09004      0.23412  1.0000
  C           0.72448      0.31587      0.95459  1.0000
  C           0.76753      0.24757      0.33447  1.0000
  C           0.89626      0.63579      0.25807  1.0000
  C           0.22429      0.31051      0.60797  1.0000
  C           0.49910      0.25753      0.15036  1.0000
  C           0.01754      0.26239      0.97697  1.0000
  C           0.87983      0.49328      0.44899  1.0000
  C           0.85824      0.06931      0.93025  1.0000
  C           0.33039      0.46487      0.51223  1.0000
  C           0.59176      0.95339      0.72179  1.0000
  C           0.33978      0.50138      0.90016  1.0000
  C           0.59026      0.39370      0.63478  1.0000
  C           0.06159      0.29595      0.61612  1.0000
  C           0.70493      0.11057      0.92104  1.0000
  C           0.77314      0.09730      0.38593  1.0000
  C           0.34334      0.15268      0.49401  1.0000
  C           0.14220      0.27106      0.54901  1.0000
  C           0.15298      0.10172      0.60252  1.0000
  C           0.82695      0.94370      0.17352  1.0000
  C           0.89028      0.19516      0.00877  1.0000
  C           0.48233      0.81548      0.50634  1.0000
  C           0.93617      0.33186      0.08156  1.0000
  C           0.62448      0.15198      0.86122  1.0000
  C           0.56586      0.34445      0.91910  1.0000
  C           0.42861      0.25178      0.00684  1.0000
  C           0.19684      0.43485      0.58217  1.0000
  C           0.54153      0.39168      0.23774  1.0000
  C           0.10842      0.24878      0.30156  1.0000
  C           0.50635      0.02764      0.12411  1.0000
  C           0.34732      0.37807      0.81053  1.0000
  C           0.93599      0.94996      0.73041  1.0000
  C           0.30510      0.18137      0.10584  1.0000
  C           0.49625      0.37842      0.87003  1.0000
  C           0.73562      0.56565      0.89720  1.0000
  C           0.03509      0.42892      0.58816  1.0000
  C           0.95004      0.34027      0.31767  1.0000
  C           0.48334      0.93367      0.86809  1.0000
  C           0.33976      0.58851      0.93220  1.0000
  C           0.60008      0.68286      0.36177  1.0000
  C           0.94979      0.54066      0.06526  1.0000
  C           0.40086      0.68419      0.22049  1.0000
  C           0.58070      0.80049      0.92241  1.0000
  C           0.24956      0.83778      0.86864  1.0000
  C           0.13486      0.97329      0.07107  1.0000
  C           0.58847      0.17291      0.45338  1.0000
  C           0.57639      0.10545      0.63518  1.0000
  C           0.73043      0.75338      0.74835  1.0000
  C           0.09693      0.75928      0.67165  1.0000
  C           0.60654      0.43264      0.29964  1.0000
  C           0.66517      0.28867      0.20929  1.0000
  C           0.53590      0.19306      0.61599  1.0000
  C           0.11349      0.38249      0.39062  1.0000
  C           0.92470      0.59415      0.59421  1.0000
  C           0.29760      0.59873      0.01399  1.0000
  C           0.50617      0.44191      0.80410  1.0000
  C           0.23136      0.66389      0.02640  1.0000
  C           0.59588      0.23077      0.01905  1.0000
  C           0.88658      0.23692      0.21009  1.0000
  C           0.01967      0.61884      0.17941  1.0000
  C           0.40493      0.96583      0.51231  1.0000
  C           0.77857      0.83267      0.41150  1.0000
  C           0.08444      0.85722      0.22890  1.0000
  C           0.92697      0.72991      0.87464  1.0000
  C           0.13947      0.01593      0.97323  1.0000
  C           0.20409      0.77037      0.81118  1.0000
  C           0.14316      0.85219      0.64321  1.0000
  C           0.40923      0.52872      0.22853  1.0000
  C           0.91224      0.40716      0.68127  1.0000
  C           0.09052      0.67006      0.20331  1.0000
  C           0.40463      0.65078      0.89053  1.0000
  C           0.96532      0.15265      0.75814  1.0000
  C           0.29008      0.16577      0.83583  1.0000
  C           0.08298      0.16310      0.17599  1.0000
  C           0.65129      0.72911      0.63944  1.0000
  C           0.45644      0.37100      0.28747  1.0000
  C           0.41812      0.74136      0.38790  1.0000
  C           0.30858      0.02184      0.72051  1.0000
  C           0.81756      0.33576      0.96609  1.0000
  C           0.66941      0.86491      0.57508  1.0000
  C           0.75839      0.57379      0.05075  1.0000
  C           0.50425      0.08945      0.27421  1.0000
  C           0.84898      0.45987      0.06306  1.0000
  C           0.97764      0.47347      0.13756  1.0000
  C           0.96949      0.79035      0.03611  1.0000
  C           0.01041      0.64744      0.37766  1.0000
  C           0.57579      0.61195      0.51155  1.0000
  C           0.30661      0.51708      0.07311  1.0000
  C           0.25990      0.24490      0.15066  1.0000
  C           0.18538      0.44469      0.17110  1.0000
  C           0.86365      0.06307      0.37014  1.0000
  C           0.56358      0.61246      0.92162  1.0000
  C           0.30592      0.09547      0.57807  1.0000
  C           0.28117      0.43110      0.31403  1.0000
  C           0.32064      0.46615      0.81707  1.0000
  C           0.90251      0.33927      0.62573  1.0000
  C           0.45510      0.94311      0.24767  1.0000
  C           0.69696      0.83493      0.77679  1.0000
  C           0.36107      0.13923      0.16760  1.0000
  C           0.51262      0.60761      0.66096  1.0000
  C           0.06288      0.42945      0.02668  1.0000
  C           0.69581      0.96300      0.56721  1.0000
  C           0.68434      0.80556      0.43568  1.0000
  C           0.60443      0.24830      0.58747  1.0000
  C           0.04487      0.31020      0.72447  1.0000
  C           0.11048      0.25838      0.78691  1.0000
  C           0.14974      0.00957      0.33260  1.0000
  C           0.88562      0.71969      0.79471  1.0000
  C           0.89735      0.00131      0.15819  1.0000
  C           0.20548      0.05334      0.40479  1.0000
  C           0.16180      0.35033      0.17920  1.0000
  C           0.29425      0.68027      0.71160  1.0000
  C           0.76312      0.60979      0.81729  1.0000
  C           0.72964      0.15660      0.00474  1.0000
  C           0.02134      0.71145      0.87849  1.0000
  C           0.56033      0.23719      0.31411  1.0000
  C           0.92221      0.53626      0.67134  1.0000
  C           0.80416      0.56382      0.96842  1.0000
  C           0.45036      0.69926      0.14198  1.0000
  C           0.18982      0.78370      0.38537  1.0000
  C           0.52419      0.73896      0.76091  1.0000
  C           0.42795      0.94833      0.79799  1.0000
  C           0.94340      0.67953      0.32672  1.0000
  C           0.28304      0.66606      0.56024  1.0000
  C           0.59932      0.68988      0.79830  1.0000
  C           0.23999      0.96980      0.53207  1.0000
  C           0.44258      0.20126      0.62397  1.0000
  C           0.21552      0.53805      0.89038  1.0000
  C           0.38467      0.45236      0.04299  1.0000
  C           0.31146      0.22334      0.32122  1.0000
  C           0.57500      0.09236      0.10363  1.0000
  C           0.99503      0.56056      0.53688  1.0000
  C           0.82600      0.56632      0.46363  1.0000
  C           0.04230      0.06176      0.84153  1.0000
  C           0.93239      0.06471      0.44780  1.0000
  C           0.50460      0.18345      0.48898  1.0000
  C           0.93201      0.06840      0.54155  1.0000
  C           0.65807      0.35053      0.89146  1.0000
  C           0.18724      0.27969      0.92989  1.0000
  C           0.54608      0.15743      0.03435  1.0000
  C           0.29515      0.27618      0.68552  1.0000
  C           0.22223      0.06129      0.03484  1.0000
  C           0.66142      0.09471      0.69253  1.0000
  C           0.61335      0.85961      0.40369  1.0000
