data_cif

_audit_creation_method             'generated by GULP'

_symmetry_space_group_name_H-M     'P 1'
_symmetry_Int_Tables_number        1
_symmetry_cell_setting             triclinic

_cell_length_a                        7.7078
_cell_length_b                        7.7078
_cell_length_c                        7.7078
_cell_angle_alpha                   90.0000
_cell_angle_beta                    90.0000
_cell_angle_gamma                   90.0000

loop_
_atom_site_label
_atom_site_fract_x
_atom_site_fract_y
_atom_site_fract_z
_atom_site_occupancy
  C           0.47604      0.51988      0.06502  1.0000
  C           0.40834      0.73663      0.30978  1.0000
  C           0.29049      0.26283      0.91036  1.0000
  C           0.10388      0.00794      0.61854  1.0000
  C           0.95612      0.85531      0.88440  1.0000
  C           0.79609      0.47634      0.58415  1.0000
  C           0.61683      0.41170      0.68015  1.0000
  C           0.78704      0.71329      0.34174  1.0000
  C           0.88524      0.24243      0.32860  1.0000
  C           0.68923      0.15817      0.14434  1.0000
  C           0.86919      0.03427      0.36433  1.0000
  C           0.95032      0.93142      0.52437  1.0000
  C           0.51737      0.05800      0.15310  1.0000
  C           0.54922      0.97793      0.49883  1.0000
  C           0.46879      0.32960      0.00130  1.0000
  C           0.95036      0.34920      0.49068  1.0000
  C           0.15920      0.41950      0.83312  1.0000
  C           0.82959      0.73528      0.81561  1.0000
  C           0.91025      0.94602      0.04000  1.0000
  C           0.14370      0.91601      0.79996  1.0000
  C           0.86957      0.64850      0.65823  1.0000
  C           0.89010      0.12397      0.73025  1.0000
  C           0.49652      0.59546      0.41410  1.0000
  C           0.65105      0.70478      0.88511  1.0000
  C           0.64054      0.58588      0.02749  1.0000
  C           0.78836      0.97721      0.71871  1.0000
  C           0.47538      0.45294      0.57754  1.0000
  C           0.35952      0.63732      0.14208  1.0000
  C           0.58952      0.95394      0.69423  1.0000
  C           0.71634      0.33839      0.23435  1.0000
  C           0.01102      0.19919      0.15668  1.0000
  C           0.97119      0.39378      0.89850  1.0000
  C           0.50306      0.78898      0.79000  1.0000
  C           0.85177      0.13454      0.03824  1.0000
  C           0.35398      0.17713      0.71386  1.0000
  C           0.11437      0.47759      0.45129  1.0000
  C           0.18610      0.17010      0.08236  1.0000
  C           0.28188      0.39729      0.51864  1.0000
  C           0.10019      0.67245      0.42318  1.0000
  C           0.93270      0.49742      0.04023  1.0000
  C           0.83552      0.24300      0.87533  1.0000
  C           0.37789      0.21569      0.16942  1.0000
  C           0.39296      0.11455      0.51128  1.0000
  C           0.97715      0.70967      0.26990  1.0000
  C           0.39686      0.27722      0.37210  1.0000
  C           0.56089      0.39793      0.34072  1.0000
  C           0.30575      0.76478      0.79151  1.0000
  C           0.92150      0.89528      0.21480  1.0000
  C           0.76644      0.48368      0.10770  1.0000
  C           0.25283      0.80309      0.41707  1.0000
  C           0.70329      0.55276      0.41455  1.0000
  C           0.95507      0.74849      0.53594  1.0000
  C           0.22897      0.60552      0.86873  1.0000
  C           0.03996      0.61535      0.11722  1.0000
  C           0.62536      0.28517      0.84968  1.0000
  C           0.43733      0.01615      0.97196  1.0000
  C           0.51920      0.91127      0.29022  1.0000
  C           0.20416      0.63987      0.05152  1.0000
  C           0.03631      0.20880      0.61715  1.0000
  C           0.25574      0.95998      0.49595  1.0000
  C           0.71209      0.89379      0.37485  1.0000
  C           0.24153      0.01232      0.95603  1.0000
  C           0.51528      0.10151      0.81153  1.0000
  C           0.19905      0.30384      0.67253  1.0000
