data_cif

_audit_creation_method             'generated by GULP'

_symmetry_space_group_name_H-M     'P 1'
_symmetry_Int_Tables_number        1
_symmetry_cell_setting             triclinic

_cell_length_a                        7.6700
_cell_length_b                        7.6700
_cell_length_c                        7.6700
_cell_angle_alpha                   90.0000
_cell_angle_beta                    90.0000
_cell_angle_gamma                   90.0000

loop_
_atom_site_label
_atom_site_fract_x
_atom_site_fract_y
_atom_site_fract_z
_atom_site_occupancy
  C           0.47604      0.51988      0.06502  1.0000
  C           0.40914      0.73737      0.30854  1.0000
  C           0.29068      0.26189      0.91045  1.0000
  C           0.10399      0.00829      0.61685  1.0000
  C           0.95703      0.85538      0.88265  1.0000
  C           0.79542      0.47647      0.58321  1.0000
  C           0.61592      0.41307      0.67996  1.0000
  C           0.78802      0.71314      0.33814  1.0000
  C           0.88472      0.24359      0.32744  1.0000
  C           0.68838      0.15881      0.14307  1.0000
  C           0.86997      0.03580      0.36211  1.0000
  C           0.95032      0.93161      0.52212  1.0000
  C           0.51698      0.05785      0.15170  1.0000
  C           0.55074      0.97859      0.49799  1.0000
  C           0.46914      0.32933      0.00123  1.0000
  C           0.95043      0.34914      0.48895  1.0000
  C           0.15960      0.41907      0.83186  1.0000
  C           0.83017      0.73490      0.81486  1.0000
  C           0.91159      0.94687      0.03823  1.0000
  C           0.14354      0.91586      0.79754  1.0000
  C           0.87008      0.64798      0.65727  1.0000
  C           0.89062      0.12313      0.72904  1.0000
  C           0.49803      0.59721      0.41388  1.0000
  C           0.65127      0.70468      0.88417  1.0000
  C           0.64072      0.58643      0.02742  1.0000
  C           0.79002      0.97444      0.72000  1.0000
  C           0.47367      0.45648      0.57715  1.0000
  C           0.35952      0.63861      0.14083  1.0000
  C           0.59091      0.95322      0.69306  1.0000
  C           0.71603      0.33894      0.23420  1.0000
  C           0.01019      0.19813      0.15601  1.0000
  C           0.97100      0.39418      0.89640  1.0000
  C           0.50347      0.78829      0.78767  1.0000
  C           0.85068      0.13517      0.03631  1.0000
  C           0.35428      0.17626      0.71265  1.0000
  C           0.11432      0.47738      0.44913  1.0000
  C           0.18521      0.16743      0.08205  1.0000
  C           0.28165      0.39761      0.51778  1.0000
  C           0.10113      0.67243      0.42169  1.0000
  C           0.93311      0.49764      0.03895  1.0000
  C           0.83500      0.24365      0.87327  1.0000
  C           0.37625      0.21455      0.16903  1.0000
  C           0.39383      0.11476      0.50964  1.0000
  C           0.97864      0.71054      0.26809  1.0000
  C           0.39602      0.27671      0.37012  1.0000
  C           0.55874      0.39809      0.33956  1.0000
  C           0.30683      0.76450      0.78788  1.0000
  C           0.92463      0.89686      0.21345  1.0000
  C           0.76698      0.48430      0.10778  1.0000
  C           0.25349      0.80337      0.41574  1.0000
  C           0.70472      0.55201      0.41131  1.0000
  C           0.95547      0.74830      0.53447  1.0000
  C           0.22992      0.60532      0.86594  1.0000
  C           0.04070      0.61623      0.11504  1.0000
  C           0.62582      0.28547      0.84807  1.0000
  C           0.43804      0.01429      0.97063  1.0000
  C           0.51973      0.91150      0.28873  1.0000
  C           0.20470      0.64181      0.04867  1.0000
  C           0.03626      0.20897      0.61529  1.0000
  C           0.25619      0.96071      0.49447  1.0000
  C           0.71342      0.89390      0.37257  1.0000
  C           0.24207      0.00984      0.95506  1.0000
  C           0.51621      0.10089      0.81034  1.0000
  C           0.19946      0.30334      0.67124  1.0000
