data_cif

_audit_creation_method             'generated by GULP'

_symmetry_space_group_name_H-M     'P 1'
_symmetry_Int_Tables_number        1
_symmetry_cell_setting             triclinic

_cell_length_a                        7.5518
_cell_length_b                        7.5518
_cell_length_c                        7.5518
_cell_angle_alpha                   90.0000
_cell_angle_beta                    90.0000
_cell_angle_gamma                   90.0000

loop_
_atom_site_label
_atom_site_fract_x
_atom_site_fract_y
_atom_site_fract_z
_atom_site_occupancy
  C           0.08286      0.54642      0.42047  1.0000
  C           0.30257      0.09795      0.16011  1.0000
  C           0.13415      0.39768      0.32122  1.0000
  C           0.90727      0.92603      0.50271  1.0000
  C           0.49898      0.88767      0.03567  1.0000
  C           0.81660      0.44085      0.29296  1.0000
  C           0.94657      0.60636      0.76449  1.0000
  C           0.84237      0.51831      0.63217  1.0000
  C           0.15524      0.34803      0.69194  1.0000
  C           0.41943      0.73330      0.17014  1.0000
  C           0.91429      0.22113      0.79183  1.0000
  C           0.59751      0.87030      0.59644  1.0000
  C           0.45207      0.21317      0.66881  1.0000
  C           0.22645      0.95903      0.85662  1.0000
  C           0.54510      0.57587      0.44872  1.0000
  C           0.01441      0.92216      0.16892  1.0000
  C           0.17317      0.79302      0.92285  1.0000
  C           0.32366      0.69189      0.65178  1.0000
  C           0.76396      0.34671      0.71540  1.0000
  C           0.06474      0.22647      0.31657  1.0000
  C           0.94094      0.13767      0.45418  1.0000
  C           0.88388      0.57253      0.44235  1.0000
  C           0.48538      0.79637      0.72310  1.0000
  C           0.80144      0.23493      0.30567  1.0000
  C           0.72229      0.15090      0.11413  1.0000
  C           0.53103      0.57111      0.12548  1.0000
  C           0.62491      0.26402      0.58422  1.0000
  C           0.66413      0.95695      0.16119  1.0000
  C           0.51300      0.87515      0.29780  1.0000
  C           0.37071      0.03395      0.97416  1.0000
  C           0.83972      0.08361      0.94172  1.0000
  C           0.88633      0.73871      0.88080  1.0000
  C           0.33176      0.36959      0.62812  1.0000
  C           0.23705      0.66594      0.23885  1.0000
  C           0.09904      0.48191      0.83063  1.0000
  C           0.35875      0.06048      0.56255  1.0000
  C           0.20626      0.70850      0.45916  1.0000
  C           0.57911      0.28326      0.00208  1.0000
  C           0.09801      0.11075      0.15621  1.0000
  C           0.78456      0.91442      0.84779  1.0000
  C           0.40746      0.52663      0.56319  1.0000
  C           0.09686      0.86562      0.54917  1.0000
  C           0.07288      0.41245      0.02017  1.0000
  C           0.24018      0.45638      0.15451  1.0000
  C           0.20294      0.65507      0.80747  1.0000
  C           0.91929      0.50355      0.12919  1.0000
  C           0.83060      0.83242      0.19556  1.0000
  C           0.01774      0.21226      0.99391  1.0000
  C           0.81404      0.76930      0.39126  1.0000
  C           0.83706      0.67237      0.06521  1.0000
  C           0.18730      0.00938      0.66036  1.0000
  C           0.45900      0.21644      0.27472  1.0000
  C           0.43359      0.37895      0.13693  1.0000
  C           0.39033      0.02806      0.35724  1.0000
  C           0.62118      0.24295      0.40375  1.0000
  C           0.46901      0.17400      0.87173  1.0000
  C           0.67242      0.42482      0.88741  1.0000
  C           0.76205      0.93878      0.65053  1.0000
  C           0.13378      0.78692      0.10627  1.0000
  C           0.61538      0.48875      0.29466  1.0000
  C           0.61053      0.77002      0.43371  1.0000
  C           0.04930      0.17109      0.64324  1.0000
  C           0.65594      0.61151      0.97215  1.0000
  C           0.59854      0.79452      0.89034  1.0000
