data_cif

_audit_creation_method             'generated by GULP'

_symmetry_space_group_name_H-M     'P 1'
_symmetry_Int_Tables_number        1
_symmetry_cell_setting             triclinic

_cell_length_a                        7.6216
_cell_length_b                        7.6216
_cell_length_c                        7.6216
_cell_angle_alpha                   90.0000
_cell_angle_beta                    90.0000
_cell_angle_gamma                   90.0000

loop_
_atom_site_label
_atom_site_fract_x
_atom_site_fract_y
_atom_site_fract_z
_atom_site_occupancy
  C           0.02510      0.58715      0.36532  1.0000
  C           0.26106      0.10225      0.10702  1.0000
  C           0.10000      0.43930      0.26721  1.0000
  C           0.87920      0.96725      0.45269  1.0000
  C           0.47760      0.91637      0.98907  1.0000
  C           0.78619      0.44810      0.22117  1.0000
  C           0.92058      0.63522      0.71755  1.0000
  C           0.81034      0.55235      0.58962  1.0000
  C           0.13242      0.38041      0.63959  1.0000
  C           0.40531      0.76391      0.11759  1.0000
  C           0.88880      0.25521      0.74615  1.0000
  C           0.57178      0.89723      0.55716  1.0000
  C           0.42545      0.24090      0.63215  1.0000
  C           0.20180      0.98263      0.79789  1.0000
  C           0.52210      0.60798      0.40630  1.0000
  C           0.98855      0.93767      0.11988  1.0000
  C           0.13762      0.82088      0.85830  1.0000
  C           0.34929      0.68885      0.66312  1.0000
  C           0.73762      0.38290      0.68324  1.0000
  C           0.04441      0.25965      0.26520  1.0000
  C           0.93612      0.17439      0.42002  1.0000
  C           0.84372      0.61492      0.41518  1.0000
  C           0.48031      0.81658      0.68937  1.0000
  C           0.79420      0.29841      0.32855  1.0000
  C           0.66872      0.15889      0.01547  1.0000
  C           0.52036      0.60411      0.08858  1.0000
  C           0.60543      0.28060      0.57110  1.0000
  C           0.63503      0.98796      0.11811  1.0000
  C           0.48064      0.91583      0.25013  1.0000
  C           0.34003      0.05593      0.92310  1.0000
  C           0.80955      0.11145      0.88278  1.0000
  C           0.86409      0.76450      0.83755  1.0000
  C           0.30768      0.39550      0.57713  1.0000
  C           0.22792      0.68720      0.12357  1.0000
  C           0.07137      0.51134      0.77914  1.0000
  C           0.32593      0.10304      0.50872  1.0000
  C           0.11975      0.74176      0.42396  1.0000
  C           0.54276      0.31396      0.95672  1.0000
  C           0.06250      0.13232      0.10840  1.0000
  C           0.76940      0.94064      0.79614  1.0000
  C           0.39294      0.55766      0.53461  1.0000
  C           0.06793      0.89732      0.49810  1.0000
  C           0.99932      0.42910      0.95442  1.0000
  C           0.23943      0.50128      0.15741  1.0000
  C           0.19779      0.67118      0.76903  1.0000
  C           0.89089      0.51916      0.08165  1.0000
  C           0.80139      0.86167      0.15428  1.0000
  C           0.98359      0.22256      0.94834  1.0000
  C           0.77617      0.80485      0.34945  1.0000
  C           0.82010      0.69929      0.02523  1.0000
  C           0.15925      0.04161      0.60745  1.0000
  C           0.47747      0.26353      0.27628  1.0000
  C           0.43522      0.39973      0.12300  1.0000
  C           0.36703      0.08660      0.29221  1.0000
  C           0.62438      0.26688      0.39202  1.0000
  C           0.42282      0.21017      0.83196  1.0000
  C           0.64379      0.45466      0.85017  1.0000
  C           0.73781      0.96487      0.60229  1.0000
  C           0.10153      0.80290      0.04324  1.0000
  C           0.61684      0.53589      0.25436  1.0000
  C           0.57368      0.80800      0.38903  1.0000
  C           0.02714      0.20954      0.60287  1.0000
  C           0.63990      0.63995      0.93250  1.0000
  C           0.58833      0.82319      0.85251  1.0000
