data_cif

_audit_creation_method             'generated by GULP'

_symmetry_space_group_name_H-M     'P 1'
_symmetry_Int_Tables_number        1
_symmetry_cell_setting             triclinic

_cell_length_a                        7.6215
_cell_length_b                        7.6215
_cell_length_c                        7.6215
_cell_angle_alpha                   90.0000
_cell_angle_beta                    90.0000
_cell_angle_gamma                   90.0000

loop_
_atom_site_label
_atom_site_fract_x
_atom_site_fract_y
_atom_site_fract_z
_atom_site_occupancy
  C           0.02510      0.58715      0.36532  1.0000
  C           0.26106      0.10215      0.10698  1.0000
  C           0.09998      0.43925      0.26722  1.0000
  C           0.87918      0.96717      0.45265  1.0000
  C           0.47760      0.91628      0.98901  1.0000
  C           0.78619      0.44801      0.22113  1.0000
  C           0.92055      0.63511      0.71750  1.0000
  C           0.81032      0.55224      0.58956  1.0000
  C           0.13242      0.38033      0.63954  1.0000
  C           0.40531      0.76381      0.11753  1.0000
  C           0.88880      0.25511      0.74610  1.0000
  C           0.57176      0.89714      0.55711  1.0000
  C           0.42545      0.24080      0.63210  1.0000
  C           0.20180      0.98254      0.79784  1.0000
  C           0.52209      0.60789      0.40624  1.0000
  C           0.98855      0.93759      0.11984  1.0000
  C           0.13762      0.82080      0.85825  1.0000
  C           0.34928      0.68875      0.66307  1.0000
  C           0.73761      0.38279      0.68319  1.0000
  C           0.04441      0.25959      0.26517  1.0000
  C           0.93612      0.17431      0.41998  1.0000
  C           0.84372      0.61485      0.41514  1.0000
  C           0.48030      0.81649      0.68932  1.0000
  C           0.79419      0.29831      0.32850  1.0000
  C           0.66872      0.15880      0.01543  1.0000
  C           0.52036      0.60402      0.08853  1.0000
  C           0.60542      0.28049      0.57105  1.0000
  C           0.63501      0.98787      0.11805  1.0000
  C           0.48062      0.91573      0.25008  1.0000
  C           0.34002      0.05584      0.92305  1.0000
  C           0.80955      0.11136      0.88274  1.0000
  C           0.86405      0.76439      0.83750  1.0000
  C           0.30768      0.39540      0.57708  1.0000
  C           0.22792      0.68712      0.12353  1.0000
  C           0.07136      0.51127      0.77908  1.0000
  C           0.32592      0.10295      0.50868  1.0000
  C           0.11977      0.74173      0.42394  1.0000
  C           0.54276      0.31387      0.95667  1.0000
  C           0.06249      0.13225      0.10837  1.0000
  C           0.76939      0.94056      0.79609  1.0000
  C           0.39294      0.55756      0.53456  1.0000
  C           0.06790      0.89727      0.49808  1.0000
  C           0.99932      0.42903      0.95437  1.0000
  C           0.23942      0.50120      0.15740  1.0000
  C           0.19780      0.67109      0.76899  1.0000
  C           0.89090      0.51908      0.08161  1.0000
  C           0.80139      0.86159      0.15424  1.0000
  C           0.98359      0.22249      0.94830  1.0000
  C           0.77615      0.80477      0.34941  1.0000
  C           0.82009      0.69920      0.02520  1.0000
  C           0.15924      0.04154      0.60741  1.0000
  C           0.47746      0.26343      0.27623  1.0000
  C           0.43520      0.39964      0.12296  1.0000
  C           0.36702      0.08651      0.29216  1.0000
  C           0.62437      0.26678      0.39197  1.0000
  C           0.42281      0.21008      0.83191  1.0000
  C           0.64378      0.45456      0.85011  1.0000
  C           0.73779      0.96480      0.60224  1.0000
  C           0.10153      0.80282      0.04320  1.0000
  C           0.61683      0.53580      0.25431  1.0000
  C           0.57367      0.80791      0.38898  1.0000
  C           0.02714      0.20946      0.60284  1.0000
  C           0.63990      0.63986      0.93244  1.0000
  C           0.58833      0.82310      0.85246  1.0000
