data_cif

_audit_creation_method             'generated by GULP'

_symmetry_space_group_name_H-M     'P 1'
_symmetry_Int_Tables_number        1
_symmetry_cell_setting             triclinic

_cell_length_a                        7.5834
_cell_length_b                        7.5834
_cell_length_c                        7.5834
_cell_angle_alpha                   90.0000
_cell_angle_beta                    90.0000
_cell_angle_gamma                   90.0000

loop_
_atom_site_label
_atom_site_fract_x
_atom_site_fract_y
_atom_site_fract_z
_atom_site_occupancy
  C           0.02510      0.58715      0.36532  1.0000
  C           0.26178      0.10238      0.10773  1.0000
  C           0.10002      0.43868      0.26756  1.0000
  C           0.87902      0.96696      0.45278  1.0000
  C           0.47707      0.91724      0.98885  1.0000
  C           0.78682      0.44742      0.22038  1.0000
  C           0.92264      0.63716      0.71718  1.0000
  C           0.81026      0.55420      0.59020  1.0000
  C           0.13193      0.38015      0.63897  1.0000
  C           0.40443      0.76448      0.11766  1.0000
  C           0.88955      0.25668      0.74654  1.0000
  C           0.57030      0.89999      0.55739  1.0000
  C           0.42563      0.24094      0.63241  1.0000
  C           0.20037      0.98359      0.79844  1.0000
  C           0.52286      0.60849      0.40673  1.0000
  C           0.98785      0.93818      0.12102  1.0000
  C           0.13522      0.82151      0.85821  1.0000
  C           0.34803      0.68995      0.66264  1.0000
  C           0.73812      0.38400      0.68343  1.0000
  C           0.04604      0.25847      0.26608  1.0000
  C           0.93610      0.17361      0.41990  1.0000
  C           0.84339      0.61574      0.41506  1.0000
  C           0.47884      0.81855      0.68982  1.0000
  C           0.79415      0.29720      0.32772  1.0000
  C           0.66936      0.16061      0.01696  1.0000
  C           0.52028      0.60460      0.08848  1.0000
  C           0.60597      0.28064      0.57142  1.0000
  C           0.63411      0.98925      0.11885  1.0000
  C           0.47946      0.91610      0.25110  1.0000
  C           0.33951      0.05659      0.92310  1.0000
  C           0.81018      0.11273      0.88386  1.0000
  C           0.86728      0.76698      0.83803  1.0000
  C           0.30752      0.39542      0.57614  1.0000
  C           0.22682      0.68717      0.12344  1.0000
  C           0.07158      0.51033      0.77942  1.0000
  C           0.32616      0.10241      0.50941  1.0000
  C           0.12152      0.74126      0.42383  1.0000
  C           0.54274      0.31459      0.95702  1.0000
  C           0.06324      0.13161      0.10911  1.0000
  C           0.76963      0.94190      0.79670  1.0000
  C           0.39278      0.55819      0.53434  1.0000
  C           0.06816      0.89674      0.49858  1.0000
  C           0.00122      0.42894      0.95480  1.0000
  C           0.23854      0.50089      0.15632  1.0000
  C           0.19604      0.67199      0.76834  1.0000
  C           0.89250      0.51973      0.08180  1.0000
  C           0.80024      0.86280      0.15520  1.0000
  C           0.98540      0.22218      0.94909  1.0000
  C           0.77572      0.80531      0.35002  1.0000
  C           0.82123      0.70029      0.02532  1.0000
  C           0.15905      0.04161      0.60784  1.0000
  C           0.47640      0.26368      0.27659  1.0000
  C           0.43503      0.39912      0.12276  1.0000
  C           0.36596      0.08671      0.29418  1.0000
  C           0.62423      0.26646      0.39183  1.0000
  C           0.42243      0.21114      0.83219  1.0000
  C           0.64385      0.45553      0.85034  1.0000
  C           0.73729      0.96717      0.60262  1.0000
  C           0.09964      0.80266      0.04352  1.0000
  C           0.61755      0.53615      0.25449  1.0000
  C           0.57314      0.80900      0.38984  1.0000
  C           0.02705      0.20868      0.60245  1.0000
  C           0.64053      0.64119      0.93239  1.0000
  C           0.58849      0.82439      0.85243  1.0000
