data_cif

_audit_creation_method             'generated by GULP'

_symmetry_space_group_name_H-M     'P 1'
_symmetry_Int_Tables_number        1
_symmetry_cell_setting             triclinic

_cell_length_a                        7.5140
_cell_length_b                        7.5140
_cell_length_c                        7.5140
_cell_angle_alpha                   90.0000
_cell_angle_beta                    90.0000
_cell_angle_gamma                   90.0000

loop_
_atom_site_label
_atom_site_fract_x
_atom_site_fract_y
_atom_site_fract_z
_atom_site_occupancy
  C           0.08286      0.54642      0.42047  1.0000
  C           0.30087      0.09836      0.15862  1.0000
  C           0.13514      0.39737      0.32143  1.0000
  C           0.90581      0.92595      0.50110  1.0000
  C           0.49691      0.88815      0.03391  1.0000
  C           0.81669      0.44115      0.29092  1.0000
  C           0.94594      0.60752      0.76246  1.0000
  C           0.84075      0.51932      0.63042  1.0000
  C           0.15334      0.34810      0.68960  1.0000
  C           0.41765      0.73330      0.16871  1.0000
  C           0.91322      0.22214      0.79026  1.0000
  C           0.59523      0.87315      0.59461  1.0000
  C           0.45097      0.21285      0.66751  1.0000
  C           0.22360      0.95970      0.85584  1.0000
  C           0.54482      0.57570      0.44790  1.0000
  C           0.01238      0.92311      0.16834  1.0000
  C           0.17102      0.79303      0.92228  1.0000
  C           0.32397      0.69219      0.65211  1.0000
  C           0.76292      0.34732      0.71376  1.0000
  C           0.06485      0.22609      0.31679  1.0000
  C           0.93940      0.13731      0.45334  1.0000
  C           0.88317      0.57302      0.44049  1.0000
  C           0.48377      0.79862      0.72192  1.0000
  C           0.80043      0.23506      0.30311  1.0000
  C           0.72065      0.15169      0.11254  1.0000
  C           0.52971      0.57094      0.12381  1.0000
  C           0.62412      0.26420      0.58290  1.0000
  C           0.66198      0.95775      0.16000  1.0000
  C           0.51110      0.87515      0.29719  1.0000
  C           0.36865      0.03455      0.97273  1.0000
  C           0.83835      0.08473      0.94073  1.0000
  C           0.88689      0.74076      0.87910  1.0000
  C           0.33027      0.36925      0.62581  1.0000
  C           0.23523      0.66577      0.23782  1.0000
  C           0.09805      0.48202      0.82888  1.0000
  C           0.35756      0.05961      0.56197  1.0000
  C           0.20566      0.70918      0.45912  1.0000
  C           0.57807      0.28352      0.00072  1.0000
  C           0.09658      0.11119      0.15526  1.0000
  C           0.78364      0.91596      0.84628  1.0000
  C           0.40657      0.52680      0.56205  1.0000
  C           0.09507      0.86527      0.54860  1.0000
  C           0.07233      0.41273      0.01834  1.0000
  C           0.23865      0.45552      0.15254  1.0000
  C           0.20359      0.65450      0.80763  1.0000
  C           0.91887      0.50429      0.12694  1.0000
  C           0.82853      0.83318      0.19430  1.0000
  C           0.01761      0.21280      0.99298  1.0000
  C           0.81294      0.76950      0.38989  1.0000
  C           0.83611      0.67343      0.06325  1.0000
  C           0.18548      0.00939      0.65958  1.0000
  C           0.45789      0.21670      0.27438  1.0000
  C           0.43186      0.37842      0.13487  1.0000
  C           0.38822      0.02804      0.35690  1.0000
  C           0.62031      0.24335      0.40201  1.0000
  C           0.46763      0.17429      0.87016  1.0000
  C           0.67131      0.42530      0.88571  1.0000
  C           0.76041      0.94176      0.64887  1.0000
  C           0.13137      0.78692      0.10589  1.0000
  C           0.61473      0.48822      0.29332  1.0000
  C           0.60955      0.77019      0.43285  1.0000
  C           0.04774      0.17084      0.64140  1.0000
  C           0.65482      0.61216      0.97023  1.0000
  C           0.59720      0.79537      0.88872  1.0000
