data_cif

_audit_creation_method             'generated by GULP'

_symmetry_space_group_name_H-M     'P 1'
_symmetry_Int_Tables_number        1
_symmetry_cell_setting             triclinic

_cell_length_a                        7.5835
_cell_length_b                        7.5835
_cell_length_c                        7.5835
_cell_angle_alpha                   90.0000
_cell_angle_beta                    90.0000
_cell_angle_gamma                   90.0000

loop_
_atom_site_label
_atom_site_fract_x
_atom_site_fract_y
_atom_site_fract_z
_atom_site_occupancy
  C           0.02510      0.58715      0.36532  1.0000
  C           0.26177      0.10238      0.10773  1.0000
  C           0.10002      0.43868      0.26755  1.0000
  C           0.87902      0.96695      0.45279  1.0000
  C           0.47706      0.91724      0.98885  1.0000
  C           0.78681      0.44742      0.22038  1.0000
  C           0.92264      0.63716      0.71718  1.0000
  C           0.81026      0.55420      0.59021  1.0000
  C           0.13194      0.38016      0.63897  1.0000
  C           0.40443      0.76448      0.11766  1.0000
  C           0.88956      0.25667      0.74654  1.0000
  C           0.57031      0.89999      0.55739  1.0000
  C           0.42563      0.24095      0.63242  1.0000
  C           0.20038      0.98359      0.79844  1.0000
  C           0.52284      0.60850      0.40673  1.0000
  C           0.98785      0.93818      0.12102  1.0000
  C           0.13523      0.82152      0.85821  1.0000
  C           0.34803      0.68996      0.66265  1.0000
  C           0.73812      0.38400      0.68343  1.0000
  C           0.04603      0.25847      0.26609  1.0000
  C           0.93610      0.17361      0.41990  1.0000
  C           0.84339      0.61574      0.41506  1.0000
  C           0.47884      0.81856      0.68982  1.0000
  C           0.79416      0.29720      0.32771  1.0000
  C           0.66936      0.16061      0.01695  1.0000
  C           0.52029      0.60460      0.08848  1.0000
  C           0.60597      0.28065      0.57142  1.0000
  C           0.63411      0.98926      0.11884  1.0000
  C           0.47945      0.91610      0.25110  1.0000
  C           0.33951      0.05659      0.92310  1.0000
  C           0.81019      0.11273      0.88386  1.0000
  C           0.86728      0.76698      0.83803  1.0000
  C           0.30753      0.39543      0.57615  1.0000
  C           0.22682      0.68717      0.12344  1.0000
  C           0.07159      0.51033      0.77942  1.0000
  C           0.32616      0.10242      0.50941  1.0000
  C           0.12151      0.74126      0.42382  1.0000
  C           0.54274      0.31460      0.95702  1.0000
  C           0.06324      0.13162      0.10911  1.0000
  C           0.76963      0.94190      0.79671  1.0000
  C           0.39278      0.55820      0.53434  1.0000
  C           0.06816      0.89674      0.49859  1.0000
  C           0.00121      0.42895      0.95480  1.0000
  C           0.23854      0.50089      0.15632  1.0000
  C           0.19604      0.67199      0.76834  1.0000
  C           0.89249      0.51974      0.08180  1.0000
  C           0.80024      0.86280      0.15519  1.0000
  C           0.98540      0.22219      0.94910  1.0000
  C           0.77572      0.80530      0.35002  1.0000
  C           0.82123      0.70029      0.02532  1.0000
  C           0.15905      0.04161      0.60784  1.0000
  C           0.47640      0.26368      0.27659  1.0000
  C           0.43504      0.39913      0.12277  1.0000
  C           0.36596      0.08671      0.29418  1.0000
  C           0.62423      0.26647      0.39183  1.0000
  C           0.42242      0.21114      0.83220  1.0000
  C           0.64385      0.45554      0.85034  1.0000
  C           0.73729      0.96715      0.60262  1.0000
  C           0.09964      0.80267      0.04352  1.0000
  C           0.61755      0.53616      0.25449  1.0000
  C           0.57313      0.80900      0.38984  1.0000
  C           0.02706      0.20869      0.60245  1.0000
  C           0.64052      0.64120      0.93239  1.0000
  C           0.58849      0.82440      0.85244  1.0000
