data_cif

_audit_creation_method             'generated by GULP'

_symmetry_space_group_name_H-M     'P 1'
_symmetry_Int_Tables_number        1
_symmetry_cell_setting             triclinic

_cell_length_a                        7.6124
_cell_length_b                        7.6124
_cell_length_c                        7.6124
_cell_angle_alpha                   90.0000
_cell_angle_beta                    90.0000
_cell_angle_gamma                   90.0000

loop_
_atom_site_label
_atom_site_fract_x
_atom_site_fract_y
_atom_site_fract_z
_atom_site_occupancy
  C           0.47604      0.51988      0.06502  1.0000
  C           0.41056      0.73862      0.30632  1.0000
  C           0.29067      0.26034      0.91094  1.0000
  C           0.10478      0.00890      0.61480  1.0000
  C           0.96002      0.85372      0.88125  1.0000
  C           0.79628      0.47553      0.58099  1.0000
  C           0.61516      0.41503      0.67926  1.0000
  C           0.78981      0.71328      0.33305  1.0000
  C           0.88420      0.24574      0.32625  1.0000
  C           0.68678      0.15995      0.14069  1.0000
  C           0.87145      0.03827      0.35928  1.0000
  C           0.95109      0.93188      0.51890  1.0000
  C           0.51618      0.05786      0.14922  1.0000
  C           0.55218      0.97949      0.49581  1.0000
  C           0.46952      0.32891      0.00114  1.0000
  C           0.95052      0.35004      0.48702  1.0000
  C           0.16031      0.41834      0.83028  1.0000
  C           0.83291      0.73206      0.81465  1.0000
  C           0.91448      0.94776      0.03602  1.0000
  C           0.14462      0.91480      0.79413  1.0000
  C           0.87247      0.64607      0.65593  1.0000
  C           0.89122      0.12314      0.72672  1.0000
  C           0.50076      0.60026      0.41317  1.0000
  C           0.65273      0.70353      0.88252  1.0000
  C           0.64115      0.58702      0.02762  1.0000
  C           0.79104      0.97321      0.71953  1.0000
  C           0.47145      0.46298      0.57659  1.0000
  C           0.35958      0.64075      0.13874  1.0000
  C           0.59206      0.95196      0.69049  1.0000
  C           0.71581      0.33948      0.23408  1.0000
  C           0.00850      0.19462      0.15546  1.0000
  C           0.97088      0.39492      0.89358  1.0000
  C           0.50580      0.78628      0.78340  1.0000
  C           0.84861      0.13559      0.03290  1.0000
  C           0.35472      0.17515      0.71109  1.0000
  C           0.11473      0.47724      0.44622  1.0000
  C           0.18354      0.16272      0.08163  1.0000
  C           0.28198      0.39835      0.51671  1.0000
  C           0.10309      0.67245      0.41960  1.0000
  C           0.93395      0.49803      0.03740  1.0000
  C           0.83450      0.24500      0.87026  1.0000
  C           0.37344      0.21288      0.16838  1.0000
  C           0.39520      0.11598      0.50717  1.0000
  C           0.98128      0.71196      0.26563  1.0000
  C           0.39502      0.27652      0.36694  1.0000
  C           0.55631      0.39855      0.33826  1.0000
  C           0.30964      0.76320      0.78167  1.0000
  C           0.93015      0.89950      0.21212  1.0000
  C           0.76803      0.48518      0.10831  1.0000
  C           0.25493      0.80392      0.41374  1.0000
  C           0.70722      0.55108      0.40709  1.0000
  C           0.95665      0.74801      0.53247  1.0000
  C           0.23169      0.60475      0.86156  1.0000
  C           0.04208      0.61786      0.11174  1.0000
  C           0.62627      0.28591      0.84560  1.0000
  C           0.43929      0.01115      0.96845  1.0000
  C           0.52064      0.91198      0.28596  1.0000
  C           0.20568      0.64527      0.04400  1.0000
  C           0.03645      0.20960      0.61254  1.0000
  C           0.25740      0.96191      0.49227  1.0000
  C           0.71543      0.89450      0.36888  1.0000
  C           0.24317      0.00580      0.95373  1.0000
  C           0.51753      0.09975      0.80834  1.0000
  C           0.20038      0.30289      0.66945  1.0000
