data_cif

_audit_creation_method             'generated by GULP'

_symmetry_space_group_name_H-M     'P 1'
_symmetry_Int_Tables_number        1
_symmetry_cell_setting             triclinic

_cell_length_a                        7.5560
_cell_length_b                        7.5560
_cell_length_c                        7.5560
_cell_angle_alpha                   90.0000
_cell_angle_beta                    90.0000
_cell_angle_gamma                   90.0000

loop_
_atom_site_label
_atom_site_fract_x
_atom_site_fract_y
_atom_site_fract_z
_atom_site_occupancy
  C           0.03578      0.52617      0.33989  1.0000
  C           0.23975      0.05771      0.07392  1.0000
  C           0.08731      0.37433      0.24294  1.0000
  C           0.85990      0.90865      0.41834  1.0000
  C           0.44720      0.86241      0.95240  1.0000
  C           0.78339      0.42657      0.21741  1.0000
  C           0.90547      0.58410      0.68616  1.0000
  C           0.79539      0.49989      0.55550  1.0000
  C           0.11536      0.32863      0.61011  1.0000
  C           0.37073      0.71041      0.09100  1.0000
  C           0.86793      0.20476      0.71426  1.0000
  C           0.54933      0.85299      0.51464  1.0000
  C           0.40456      0.18958      0.59243  1.0000
  C           0.17497      0.93109      0.77236  1.0000
  C           0.50182      0.55891      0.36842  1.0000
  C           0.95922      0.89595      0.08531  1.0000
  C           0.12358      0.76624      0.84137  1.0000
  C           0.27946      0.66903      0.57119  1.0000
  C           0.71646      0.33116      0.64542  1.0000
  C           0.02702      0.19816      0.24040  1.0000
  C           0.91506      0.11637      0.39197  1.0000
  C           0.83601      0.56184      0.36658  1.0000
  C           0.44018      0.77577      0.64144  1.0000
  C           0.77409      0.24052      0.28931  1.0000
  C           0.64849      0.11061      0.98368  1.0000
  C           0.48355      0.54772      0.04952  1.0000
  C           0.58445      0.22909      0.52848  1.0000
  C           0.60839      0.93636      0.07879  1.0000
  C           0.45964      0.86293      0.21485  1.0000
  C           0.31554      0.00717      0.88984  1.0000
  C           0.79207      0.06076      0.85192  1.0000
  C           0.84673      0.71738      0.80168  1.0000
  C           0.29048      0.34837      0.54503  1.0000
  C           0.19014      0.64253      0.15933  1.0000
  C           0.05771      0.45747      0.75120  1.0000
  C           0.30718      0.04680      0.47748  1.0000
  C           0.16098      0.68751      0.37947  1.0000
  C           0.51975      0.25903      0.91582  1.0000
  C           0.03956      0.08288      0.07631  1.0000
  C           0.74168      0.88849      0.76172  1.0000
  C           0.36552      0.50587      0.48182  1.0000
  C           0.05157      0.84788      0.46290  1.0000
  C           0.03029      0.38708      0.94149  1.0000
  C           0.20216      0.43098      0.07992  1.0000
  C           0.16227      0.62877      0.72891  1.0000
  C           0.87738      0.48289      0.04950  1.0000
  C           0.77585      0.81173      0.11351  1.0000
  C           0.96654      0.18760      0.91735  1.0000
  C           0.76355      0.75362      0.31026  1.0000
  C           0.78838      0.64906      0.98241  1.0000
  C           0.13890      0.98959      0.57886  1.0000
  C           0.44905      0.21175      0.23377  1.0000
  C           0.40304      0.34033      0.07282  1.0000
  C           0.34326      0.03131      0.26233  1.0000
  C           0.60044      0.21569      0.34673  1.0000
  C           0.40245      0.15469      0.79171  1.0000
  C           0.61744      0.40255      0.81028  1.0000
  C           0.71613      0.91548      0.56680  1.0000
  C           0.08087      0.76055      0.02528  1.0000
  C           0.57918      0.47319      0.21679  1.0000
  C           0.55907      0.75574      0.35063  1.0000
  C           0.00750      0.15783      0.57288  1.0000
  C           0.60614      0.58745      0.89474  1.0000
  C           0.55331      0.77193      0.80885  1.0000
