data_cif

_audit_creation_method             'generated by GULP'

_symmetry_space_group_name_H-M     'P 1'
_symmetry_Int_Tables_number        1
_symmetry_cell_setting             triclinic

_cell_length_a                        7.5393
_cell_length_b                        7.5393
_cell_length_c                        7.5393
_cell_angle_alpha                   90.0000
_cell_angle_beta                    90.0000
_cell_angle_gamma                   90.0000

loop_
_atom_site_label
_atom_site_fract_x
_atom_site_fract_y
_atom_site_fract_z
_atom_site_occupancy
  C           0.08286      0.54642      0.42047  1.0000
  C           0.30202      0.09795      0.15982  1.0000
  C           0.13446      0.39750      0.32141  1.0000
  C           0.90674      0.92591      0.50237  1.0000
  C           0.49827      0.88766      0.03529  1.0000
  C           0.81663      0.44080      0.29247  1.0000
  C           0.94642      0.60659      0.76400  1.0000
  C           0.84189      0.51850      0.63176  1.0000
  C           0.15463      0.34788      0.69137  1.0000
  C           0.41874      0.73313      0.16987  1.0000
  C           0.91394      0.22132      0.79151  1.0000
  C           0.59674      0.87106      0.59605  1.0000
  C           0.45173      0.21289      0.66858  1.0000
  C           0.22552      0.95908      0.85658  1.0000
  C           0.54500      0.57566      0.44865  1.0000
  C           0.01378      0.92232      0.16895  1.0000
  C           0.17253      0.79284      0.92292  1.0000
  C           0.32382      0.69178      0.65216  1.0000
  C           0.76364      0.34678      0.71505  1.0000
  C           0.06478      0.22624      0.31683  1.0000
  C           0.94045      0.13743      0.45409  1.0000
  C           0.88365      0.57260      0.44190  1.0000
  C           0.48487      0.79691      0.72294  1.0000
  C           0.80111      0.23482      0.30501  1.0000
  C           0.72176      0.15100      0.11379  1.0000
  C           0.53055      0.57089      0.12512  1.0000
  C           0.62467      0.26393      0.58398  1.0000
  C           0.66341      0.95705      0.16099  1.0000
  C           0.51233      0.87498      0.29779  1.0000
  C           0.37004      0.03400      0.97388  1.0000
  C           0.83928      0.08382      0.94158  1.0000
  C           0.88656      0.73923      0.88043  1.0000
  C           0.33129      0.36929      0.62756  1.0000
  C           0.23634      0.66557      0.23890  1.0000
  C           0.09873      0.48177      0.83026  1.0000
  C           0.35835      0.06002      0.56256  1.0000
  C           0.20603      0.70865      0.45950  1.0000
  C           0.57880      0.28317      0.00181  1.0000
  C           0.09756      0.11076      0.15611  1.0000
  C           0.78429      0.91477      0.84749  1.0000
  C           0.40719      0.52650      0.56303  1.0000
  C           0.09621      0.86540      0.54920  1.0000
  C           0.07271      0.41237      0.01976  1.0000
  C           0.23974      0.45588      0.15396  1.0000
  C           0.20321      0.65468      0.80779  1.0000
  C           0.91916      0.50363      0.12862  1.0000
  C           0.82994      0.83251      0.19533  1.0000
  C           0.01771      0.21227      0.99380  1.0000
  C           0.81364      0.76924      0.39099  1.0000
  C           0.83675      0.67255      0.06474  1.0000
  C           0.18669      0.00923      0.66032  1.0000
  C           0.45866      0.21635      0.27483  1.0000
  C           0.43307      0.37856      0.13642  1.0000
  C           0.38961      0.02790      0.35734  1.0000
  C           0.62090      0.24293      0.40338  1.0000
  C           0.46859      0.17392      0.87140  1.0000
  C           0.67207      0.42482      0.88705  1.0000
  C           0.76149      0.93960      0.65019  1.0000
  C           0.13309      0.78677      0.10641  1.0000
  C           0.61515      0.48843      0.29441  1.0000
  C           0.61017      0.76993      0.43362  1.0000
  C           0.04879      0.17086      0.64283  1.0000
  C           0.65555      0.61155      0.97174  1.0000
  C           0.59809      0.79462      0.89003  1.0000
