data_cif

_audit_creation_method             'generated by GULP'

_symmetry_space_group_name_H-M     'P 1'
_symmetry_Int_Tables_number        1
_symmetry_cell_setting             triclinic

_cell_length_a                        7.6089
_cell_length_b                        7.6089
_cell_length_c                        7.6089
_cell_angle_alpha                   90.0000
_cell_angle_beta                    90.0000
_cell_angle_gamma                   90.0000

loop_
_atom_site_label
_atom_site_fract_x
_atom_site_fract_y
_atom_site_fract_z
_atom_site_occupancy
  C           0.02510      0.58715      0.36532  1.0000
  C           0.26131      0.10226      0.10723  1.0000
  C           0.09999      0.43908      0.26732  1.0000
  C           0.87914      0.96712      0.45269  1.0000
  C           0.47744      0.91661      0.98897  1.0000
  C           0.78641      0.44782      0.22089  1.0000
  C           0.92121      0.63578      0.71740  1.0000
  C           0.81029      0.55288      0.58976  1.0000
  C           0.13227      0.38029      0.63936  1.0000
  C           0.40504      0.76405      0.11759  1.0000
  C           0.88907      0.25564      0.74624  1.0000
  C           0.57130      0.89810      0.55721  1.0000
  C           0.42552      0.24085      0.63220  1.0000
  C           0.20136      0.98289      0.79804  1.0000
  C           0.52237      0.60811      0.40641  1.0000
  C           0.98833      0.93782      0.12023  1.0000
  C           0.13685      0.82104      0.85825  1.0000
  C           0.34890      0.68915      0.66296  1.0000
  C           0.73779      0.38319      0.68326  1.0000
  C           0.04496      0.25923      0.26547  1.0000
  C           0.93614      0.17409      0.41996  1.0000
  C           0.84361      0.61516      0.41511  1.0000
  C           0.47985      0.81718      0.68949  1.0000
  C           0.79420      0.29796      0.32825  1.0000
  C           0.66897      0.15941      0.01594  1.0000
  C           0.52034      0.60421      0.08852  1.0000
  C           0.60562      0.28053      0.57117  1.0000
  C           0.63474      0.98834      0.11832  1.0000
  C           0.48026      0.91587      0.25043  1.0000
  C           0.33987      0.05609      0.92307  1.0000
  C           0.80979      0.11182      0.88311  1.0000
  C           0.86508      0.76523      0.83767  1.0000
  C           0.30765      0.39542      0.57678  1.0000
  C           0.22756      0.68717      0.12352  1.0000
  C           0.07143      0.51098      0.77919  1.0000
  C           0.32601      0.10278      0.50890  1.0000
  C           0.12035      0.74157      0.42391  1.0000
  C           0.54278      0.31410      0.95678  1.0000
  C           0.06276      0.13206      0.10861  1.0000
  C           0.76949      0.94102      0.79629  1.0000
  C           0.39291      0.55778      0.53450  1.0000
  C           0.06801      0.89711      0.49825  1.0000
  C           0.99997      0.42902      0.95452  1.0000
  C           0.23912      0.50114      0.15705  1.0000
  C           0.19726      0.67138      0.76881  1.0000
  C           0.89144      0.51930      0.08168  1.0000
  C           0.80104      0.86200      0.15456  1.0000
  C           0.98422      0.22240      0.94856  1.0000
  C           0.77604      0.80497      0.34961  1.0000
  C           0.82047      0.69957      0.02525  1.0000
  C           0.15919      0.04158      0.60755  1.0000
  C           0.47714      0.26351      0.27634  1.0000
  C           0.43522      0.39943      0.12287  1.0000
  C           0.36668      0.08658      0.29283  1.0000
  C           0.62435      0.26667      0.39193  1.0000
  C           0.42271      0.21043      0.83200  1.0000
  C           0.64382      0.45488      0.85018  1.0000
  C           0.73765      0.96560      0.60237  1.0000
  C           0.10093      0.80280      0.04332  1.0000
  C           0.61708      0.53593      0.25438  1.0000
  C           0.57352      0.80828      0.38927  1.0000
  C           0.02714      0.20922      0.60270  1.0000
  C           0.64011      0.64030      0.93243  1.0000
  C           0.58839      0.82353      0.85246  1.0000
