data_cif

_audit_creation_method             'generated by GULP'

_symmetry_space_group_name_H-M     'P 1'
_symmetry_Int_Tables_number        1
_symmetry_cell_setting             triclinic

_cell_length_a                        7.6090
_cell_length_b                        7.6090
_cell_length_c                        7.6090
_cell_angle_alpha                   90.0000
_cell_angle_beta                    90.0000
_cell_angle_gamma                   90.0000

loop_
_atom_site_label
_atom_site_fract_x
_atom_site_fract_y
_atom_site_fract_z
_atom_site_occupancy
  C           0.02510      0.58715      0.36532  1.0000
  C           0.26131      0.10235      0.10726  1.0000
  C           0.10002      0.43913      0.26732  1.0000
  C           0.87916      0.96719      0.45273  1.0000
  C           0.47745      0.91671      0.98903  1.0000
  C           0.78640      0.44790      0.22093  1.0000
  C           0.92121      0.63588      0.71745  1.0000
  C           0.81030      0.55298      0.58981  1.0000
  C           0.13226      0.38038      0.63942  1.0000
  C           0.40504      0.76415      0.11766  1.0000
  C           0.88906      0.25573      0.74629  1.0000
  C           0.57132      0.89818      0.55726  1.0000
  C           0.42551      0.24096      0.63224  1.0000
  C           0.20136      0.98298      0.79808  1.0000
  C           0.52236      0.60819      0.40647  1.0000
  C           0.98833      0.93792      0.12028  1.0000
  C           0.13687      0.82114      0.85830  1.0000
  C           0.34891      0.68924      0.66302  1.0000
  C           0.73778      0.38329      0.68331  1.0000
  C           0.04495      0.25930      0.26550  1.0000
  C           0.93613      0.17416      0.41999  1.0000
  C           0.84362      0.61523      0.41516  1.0000
  C           0.47986      0.81727      0.68954  1.0000
  C           0.79420      0.29804      0.32830  1.0000
  C           0.66896      0.15950      0.01597  1.0000
  C           0.52033      0.60431      0.08859  1.0000
  C           0.60561      0.28064      0.57122  1.0000
  C           0.63475      0.98844      0.11838  1.0000
  C           0.48027      0.91597      0.25049  1.0000
  C           0.33988      0.05619      0.92311  1.0000
  C           0.80978      0.11192      0.88315  1.0000
  C           0.86508      0.76533      0.83773  1.0000
  C           0.30763      0.39552      0.57683  1.0000
  C           0.22757      0.68726      0.12357  1.0000
  C           0.07143      0.51108      0.77925  1.0000
  C           0.32600      0.10288      0.50894  1.0000
  C           0.12033      0.74161      0.42392  1.0000
  C           0.54278      0.31419      0.95683  1.0000
  C           0.06276      0.13214      0.10865  1.0000
  C           0.76950      0.94112      0.79635  1.0000
  C           0.39290      0.55788      0.53455  1.0000
  C           0.06802      0.89715      0.49827  1.0000
  C           0.99996      0.42911      0.95457  1.0000
  C           0.23913      0.50122      0.15706  1.0000
  C           0.19727      0.67147      0.76888  1.0000
  C           0.89142      0.51939      0.08173  1.0000
  C           0.80104      0.86209      0.15461  1.0000
  C           0.98421      0.22250      0.94860  1.0000
  C           0.77605      0.80504      0.34966  1.0000
  C           0.82046      0.69966      0.02530  1.0000
  C           0.15919      0.04165      0.60759  1.0000
  C           0.47714      0.26361      0.27639  1.0000
  C           0.43524      0.39953      0.12291  1.0000
  C           0.36669      0.08668      0.29287  1.0000
  C           0.62435      0.26677      0.39197  1.0000
  C           0.42270      0.21053      0.83205  1.0000
  C           0.64382      0.45498      0.85023  1.0000
  C           0.73766      0.96568      0.60242  1.0000
  C           0.10093      0.80290      0.04337  1.0000
  C           0.61708      0.53602      0.25444  1.0000
  C           0.57353      0.80837      0.38932  1.0000
  C           0.02713      0.20930      0.60275  1.0000
  C           0.64010      0.64040      0.93249  1.0000
  C           0.58839      0.82363      0.85252  1.0000
