data_cif

_audit_creation_method             'generated by GULP'

_symmetry_space_group_name_H-M     'P 1'
_symmetry_Int_Tables_number        1
_symmetry_cell_setting             triclinic

_cell_length_a                        7.6308
_cell_length_b                        7.6308
_cell_length_c                        7.6308
_cell_angle_alpha                   90.0000
_cell_angle_beta                    90.0000
_cell_angle_gamma                   90.0000

loop_
_atom_site_label
_atom_site_fract_x
_atom_site_fract_y
_atom_site_fract_z
_atom_site_occupancy
  C           0.03578      0.52617      0.33989  1.0000
  C           0.23999      0.05534      0.07543  1.0000
  C           0.08489      0.37439      0.24322  1.0000
  C           0.86206      0.90793      0.42165  1.0000
  C           0.44938      0.86043      0.95532  1.0000
  C           0.78211      0.42684      0.22261  1.0000
  C           0.90621      0.58162      0.69061  1.0000
  C           0.79839      0.49775      0.55927  1.0000
  C           0.11823      0.32807      0.61560  1.0000
  C           0.37252      0.70913      0.09336  1.0000
  C           0.86949      0.20238      0.71710  1.0000
  C           0.55275      0.84719      0.51718  1.0000
  C           0.40639      0.19016      0.59605  1.0000
  C           0.17914      0.92973      0.77352  1.0000
  C           0.50116      0.55820      0.36990  1.0000
  C           0.96189      0.89391      0.08664  1.0000
  C           0.12651      0.76617      0.84220  1.0000
  C           0.27813      0.66799      0.57054  1.0000
  C           0.71822      0.32990      0.64929  1.0000
  C           0.02433      0.19886      0.24101  1.0000
  C           0.91684      0.11632      0.39529  1.0000
  C           0.83770      0.56075      0.37042  1.0000
  C           0.44279      0.77109      0.64301  1.0000
  C           0.77546      0.24186      0.29527  1.0000
  C           0.64969      0.10703      0.98425  1.0000
  C           0.48493      0.54688      0.05241  1.0000
  C           0.58555      0.22969      0.53251  1.0000
  C           0.61123      0.93350      0.07995  1.0000
  C           0.46252      0.86210      0.21539  1.0000
  C           0.31788      0.00544      0.89236  1.0000
  C           0.79348      0.05839      0.85340  1.0000
  C           0.84477      0.71316      0.80502  1.0000
  C           0.29259      0.34868      0.55045  1.0000
  C           0.19200      0.64094      0.16169  1.0000
  C           0.05916      0.45713      0.75539  1.0000
  C           0.30919      0.04905      0.47934  1.0000
  C           0.16165      0.68608      0.37966  1.0000
  C           0.52177      0.25726      0.91897  1.0000
  C           0.04040      0.08201      0.07869  1.0000
  C           0.74203      0.88478      0.76418  1.0000
  C           0.36639      0.50500      0.48441  1.0000
  C           0.05447      0.84841      0.46409  1.0000
  C           0.03135      0.38661      0.94641  1.0000
  C           0.20225      0.43106      0.08300  1.0000
  C           0.16050      0.62956      0.72871  1.0000
  C           0.87683      0.48089      0.05438  1.0000
  C           0.77901      0.80954      0.11583  1.0000
  C           0.96559      0.18594      0.91919  1.0000
  C           0.76530      0.75273      0.31291  1.0000
  C           0.78920      0.64654      0.98628  1.0000
  C           0.14179      0.98961      0.58007  1.0000
  C           0.45334      0.21151      0.23762  1.0000
  C           0.40561      0.34004      0.07650  1.0000
  C           0.34695      0.03167      0.26112  1.0000
  C           0.60244      0.21575      0.35198  1.0000
  C           0.40463      0.15318      0.79506  1.0000
  C           0.61961      0.40070      0.81425  1.0000
  C           0.71825      0.90934      0.56954  1.0000
  C           0.08457      0.76044      0.02593  1.0000
  C           0.57911      0.47304      0.21927  1.0000
  C           0.56044      0.75417      0.35178  1.0000
  C           0.00980      0.15841      0.57619  1.0000
  C           0.60745      0.58553      0.89843  1.0000
  C           0.55491      0.76975      0.81146  1.0000
