data_cif

_audit_creation_method             'generated by GULP'

_symmetry_space_group_name_H-M     'P 1'
_symmetry_Int_Tables_number        1
_symmetry_cell_setting             triclinic

_cell_length_a                        7.5706
_cell_length_b                        7.5706
_cell_length_c                        7.5706
_cell_angle_alpha                   90.0000
_cell_angle_beta                    90.0000
_cell_angle_gamma                   90.0000

loop_
_atom_site_label
_atom_site_fract_x
_atom_site_fract_y
_atom_site_fract_z
_atom_site_occupancy
  C           0.02510      0.58715      0.36532  1.0000
  C           0.26202      0.10234      0.10790  1.0000
  C           0.10010      0.43839      0.26774  1.0000
  C           0.87895      0.96677      0.45278  1.0000
  C           0.47696      0.91745      0.98869  1.0000
  C           0.78704      0.44705      0.22006  1.0000
  C           0.92313      0.63760      0.71701  1.0000
  C           0.81013      0.55464      0.59027  1.0000
  C           0.13174      0.38000      0.63863  1.0000
  C           0.40424      0.76457      0.11759  1.0000
  C           0.88975      0.25705      0.74662  1.0000
  C           0.56980      0.90081      0.55739  1.0000
  C           0.42565      0.24084      0.63244  1.0000
  C           0.19992      0.98376      0.79862  1.0000
  C           0.52312      0.60854      0.40676  1.0000
  C           0.98768      0.93822      0.12138  1.0000
  C           0.13452      0.82155      0.85821  1.0000
  C           0.34768      0.69014      0.66246  1.0000
  C           0.73821      0.38421      0.68342  1.0000
  C           0.04659      0.25800      0.26637  1.0000
  C           0.93607      0.17326      0.41982  1.0000
  C           0.84327      0.61592      0.41493  1.0000
  C           0.47837      0.81908      0.68991  1.0000
  C           0.79410      0.29664      0.32735  1.0000
  C           0.66947      0.16114      0.01744  1.0000
  C           0.52036      0.60466      0.08830  1.0000
  C           0.60611      0.28048      0.57144  1.0000
  C           0.63384      0.98959      0.11907  1.0000
  C           0.47907      0.91609      0.25135  1.0000
  C           0.33936      0.05670      0.92306  1.0000
  C           0.81032      0.11309      0.88419  1.0000
  C           0.86811      0.76760      0.83811  1.0000
  C           0.30745      0.39527      0.57570  1.0000
  C           0.22657      0.68700      0.12342  1.0000
  C           0.07162      0.50995      0.77938  1.0000
  C           0.32620      0.10207      0.50962  1.0000
  C           0.12212      0.74105      0.42378  1.0000
  C           0.54262      0.31484      0.95712  1.0000
  C           0.06347      0.13130      0.10929  1.0000
  C           0.76967      0.94225      0.79683  1.0000
  C           0.39275      0.55823      0.53416  1.0000
  C           0.06820      0.89647      0.49874  1.0000
  C           0.00186      0.42881      0.95487  1.0000
  C           0.23845      0.50058      0.15610  1.0000
  C           0.19556      0.67208      0.76814  1.0000
  C           0.89308      0.51983      0.08186  1.0000
  C           0.79990      0.86309      0.15547  1.0000
  C           0.98596      0.22197      0.94929  1.0000
  C           0.77556      0.80537      0.35017  1.0000
  C           0.82167      0.70051      0.02539  1.0000
  C           0.15896      0.04150      0.60796  1.0000
  C           0.47593      0.26366      0.27664  1.0000
  C           0.43457      0.39908      0.12277  1.0000
  C           0.36557      0.08660      0.29476  1.0000
  C           0.62414      0.26619      0.39166  1.0000
  C           0.42225      0.21139      0.83223  1.0000
  C           0.64382      0.45576      0.85032  1.0000
  C           0.73708      0.96787      0.60266  1.0000
  C           0.09909      0.80242      0.04365  1.0000
  C           0.61778      0.53609      0.25441  1.0000
  C           0.57295      0.80922      0.39004  1.0000
  C           0.02698      0.20833      0.60230  1.0000
  C           0.64085      0.64158      0.93223  1.0000
  C           0.58860      0.82471      0.85232  1.0000
