data_cif

_audit_creation_method             'generated by GULP'

_symmetry_space_group_name_H-M     'P 1'
_symmetry_Int_Tables_number        1
_symmetry_cell_setting             triclinic

_cell_length_a                        7.5180
_cell_length_b                        7.5180
_cell_length_c                        7.5180
_cell_angle_alpha                   90.0000
_cell_angle_beta                    90.0000
_cell_angle_gamma                   90.0000

loop_
_atom_site_label
_atom_site_fract_x
_atom_site_fract_y
_atom_site_fract_z
_atom_site_occupancy
  C           0.03578      0.52617      0.33989  1.0000
  C           0.23967      0.05951      0.07287  1.0000
  C           0.08871      0.37442      0.24270  1.0000
  C           0.85894      0.90915      0.41635  1.0000
  C           0.44610      0.86379      0.95057  1.0000
  C           0.78422      0.42669      0.21423  1.0000
  C           0.90524      0.58576      0.68358  1.0000
  C           0.79393      0.50138      0.55330  1.0000
  C           0.11403      0.32933      0.60706  1.0000
  C           0.36990      0.71132      0.08941  1.0000
  C           0.86715      0.20659      0.71252  1.0000
  C           0.54765      0.85649      0.51286  1.0000
  C           0.40372      0.18965      0.59018  1.0000
  C           0.17284      0.93226      0.77153  1.0000
  C           0.50236      0.55947      0.36733  1.0000
  C           0.95783      0.89734      0.08418  1.0000
  C           0.12209      0.76672      0.84048  1.0000
  C           0.28006      0.67005      0.57092  1.0000
  C           0.71554      0.33224      0.64303  1.0000
  C           0.02851      0.19794      0.23999  1.0000
  C           0.91405      0.11668      0.38999  1.0000
  C           0.83516      0.56262      0.36423  1.0000
  C           0.43888      0.77876      0.64016  1.0000
  C           0.77340      0.23998      0.28557  1.0000
  C           0.64779      0.11302      0.98320  1.0000
  C           0.48305      0.54849      0.04767  1.0000
  C           0.58396      0.22920      0.52586  1.0000
  C           0.60688      0.93825      0.07785  1.0000
  C           0.45816      0.86364      0.21424  1.0000
  C           0.31438      0.00848      0.88828  1.0000
  C           0.79144      0.06270      0.85104  1.0000
  C           0.84794      0.72005      0.79959  1.0000
  C           0.28952      0.34861      0.54192  1.0000
  C           0.18918      0.64352      0.15737  1.0000
  C           0.05727      0.45812      0.74883  1.0000
  C           0.30622      0.04595      0.47639  1.0000
  C           0.16068      0.68832      0.37867  1.0000
  C           0.51858      0.26056      0.91387  1.0000
  C           0.03907      0.08368      0.07476  1.0000
  C           0.74156      0.89091      0.76014  1.0000
  C           0.36523      0.50670      0.48020  1.0000
  C           0.05020      0.84779      0.46211  1.0000
  C           0.03052      0.38807      0.93917  1.0000
  C           0.20118      0.43105      0.07762  1.0000
  C           0.16327      0.62889      0.72856  1.0000
  C           0.87780      0.48442      0.04655  1.0000
  C           0.77418      0.81324      0.11193  1.0000
  C           0.96699      0.18902      0.91609  1.0000
  C           0.76279      0.75433      0.30851  1.0000
  C           0.78805      0.65081      0.97997  1.0000
  C           0.13746      0.98992      0.57798  1.0000
  C           0.44659      0.21231      0.23126  1.0000
  C           0.40101      0.34146      0.07046  1.0000
  C           0.34133      0.03137      0.26254  1.0000
  C           0.59933      0.21612      0.34341  1.0000
  C           0.40143      0.15582      0.78964  1.0000
  C           0.61625      0.40399      0.80781  1.0000
  C           0.71511      0.91920      0.56501  1.0000
  C           0.07882      0.76090      0.02443  1.0000
  C           0.57925      0.47336      0.21512  1.0000
  C           0.55854      0.75676      0.34968  1.0000
  C           0.00631      0.15794      0.57093  1.0000
  C           0.60559      0.58891      0.89247  1.0000
  C           0.55258      0.77353      0.80709  1.0000
