data_cif

_audit_creation_method             'generated by GULP'

_symmetry_space_group_name_H-M     'P 1'
_symmetry_Int_Tables_number        1
_symmetry_cell_setting             triclinic

_cell_length_a                        7.5014
_cell_length_b                        7.5014
_cell_length_c                        7.5014
_cell_angle_alpha                   90.0000
_cell_angle_beta                    90.0000
_cell_angle_gamma                   90.0000

loop_
_atom_site_label
_atom_site_fract_x
_atom_site_fract_y
_atom_site_fract_z
_atom_site_occupancy
  C           0.08286      0.54642      0.42047  1.0000
  C           0.30043      0.09847      0.15802  1.0000
  C           0.13554      0.39729      0.32145  1.0000
  C           0.90548      0.92587      0.50051  1.0000
  C           0.49643      0.88834      0.03320  1.0000
  C           0.81687      0.44124      0.29017  1.0000
  C           0.94576      0.60787      0.76172  1.0000
  C           0.84025      0.51963      0.62977  1.0000
  C           0.15283      0.34813      0.68869  1.0000
  C           0.41738      0.73333      0.16809  1.0000
  C           0.91296      0.22240      0.78964  1.0000
  C           0.59455      0.87419      0.59385  1.0000
  C           0.45071      0.21277      0.66697  1.0000
  C           0.22280      0.95995      0.85546  1.0000
  C           0.54486      0.57565      0.44752  1.0000
  C           0.01180      0.92344      0.16807  1.0000
  C           0.17033      0.79308      0.92191  1.0000
  C           0.32410      0.69238      0.65199  1.0000
  C           0.76269      0.34745      0.71311  1.0000
  C           0.06502      0.22596      0.31679  1.0000
  C           0.93900      0.13716      0.45298  1.0000
  C           0.88297      0.57318      0.43984  1.0000
  C           0.48332      0.79945      0.72141  1.0000
  C           0.80023      0.23510      0.30217  1.0000
  C           0.72025      0.15197      0.11194  1.0000
  C           0.52950      0.57090      0.12312  1.0000
  C           0.62398      0.26423      0.58236  1.0000
  C           0.66143      0.95804      0.15952  1.0000
  C           0.51066      0.87518      0.29687  1.0000
  C           0.36811      0.03475      0.97215  1.0000
  C           0.83800      0.08501      0.94031  1.0000
  C           0.88711      0.74142      0.87845  1.0000
  C           0.32990      0.36918      0.62491  1.0000
  C           0.23492      0.66597      0.23710  1.0000
  C           0.09781      0.48206      0.82818  1.0000
  C           0.35731      0.05933      0.56167  1.0000
  C           0.20560      0.70938      0.45878  1.0000
  C           0.57785      0.28365      0.00019  1.0000
  C           0.09623      0.11133      0.15486  1.0000
  C           0.78327      0.91638      0.84567  1.0000
  C           0.40637      0.52690      0.56154  1.0000
  C           0.09467      0.86513      0.54832  1.0000
  C           0.07227      0.41280      0.01763  1.0000
  C           0.23824      0.45535      0.15189  1.0000
  C           0.20384      0.65436      0.80748  1.0000
  C           0.91891      0.50455      0.12617  1.0000
  C           0.82798      0.83345      0.19385  1.0000
  C           0.01764      0.21294      0.99258  1.0000
  C           0.81270      0.76955      0.38938  1.0000
  C           0.83599      0.67380      0.06259  1.0000
  C           0.18503      0.00939      0.65920  1.0000
  C           0.45763      0.21681      0.27414  1.0000
  C           0.43137      0.37831      0.13412  1.0000
  C           0.38768      0.02803      0.35667  1.0000
  C           0.62015      0.24347      0.40134  1.0000
  C           0.46728      0.17443      0.86956  1.0000
  C           0.67109      0.42546      0.88505  1.0000
  C           0.75996      0.94278      0.64822  1.0000
  C           0.13056      0.78691      0.10557  1.0000
  C           0.61468      0.48804      0.29277  1.0000
  C           0.60937      0.77024      0.43247  1.0000
  C           0.04737      0.17074      0.64071  1.0000
  C           0.65467      0.61243      0.96942  1.0000
  C           0.59701      0.79577      0.88802  1.0000
