data_image0
_cell_length_a       15.2912
_cell_length_b       15.2912
_cell_length_c       15.2912
_cell_angle_alpha    90
_cell_angle_beta     90
_cell_angle_gamma    90

_symmetry_space_group_name_H-M    "P 1"
_symmetry_int_tables_number       1

loop_
  _symmetry_equiv_pos_as_xyz
  'x, y, z'

loop_
  _atom_site_label
  _atom_site_occupancy
  _atom_site_fract_x
  _atom_site_fract_y
  _atom_site_fract_z
  _atom_site_thermal_displace_type
  _atom_site_B_iso_or_equiv
  _atom_site_type_symbol
  C1       1.0000 0.40870  0.95461  0.99394  Biso   1.000  C
  C2       1.0000 0.03156  0.05619  0.68295  Biso   1.000  C
  C3       1.0000 0.34577  0.93375  0.70467  Biso   1.000  C
  O1       1.0000 0.32025  0.49480  0.48786  Biso   1.000  O
  C4       1.0000 0.09043  0.05083  0.53711  Biso   1.000  C
  C5       1.0000 0.04205  0.74155  0.54708  Biso   1.000  C
  C6       1.0000 0.88901  0.22577  0.91349  Biso   1.000  C
  O2       1.0000 0.66918  0.30914  0.26535  Biso   1.000  O
  C7       1.0000 0.97660  0.17206  0.55314  Biso   1.000  C
  O3       1.0000 0.52180  0.37690  0.89503  Biso   1.000  O
  C8       1.0000 0.47158  0.55601  0.58095  Biso   1.000  C
  O4       1.0000 0.69700  0.32940  0.36906  Biso   1.000  O
  C9       1.0000 0.04121  0.08093  0.36369  Biso   1.000  C
  O5       1.0000 0.54410  0.31717  0.10267  Biso   1.000  O
  C10      1.0000 0.08860  0.00078  0.35628  Biso   1.000  C
  C11      1.0000 0.94495  0.07541  0.86692  Biso   1.000  C
  C12      1.0000 0.49470  0.76917  0.26573  Biso   1.000  C
  C13      1.0000 0.60648  0.23278  0.94361  Biso   1.000  C
  O6       1.0000 0.43786  0.41597  0.76042  Biso   1.000  O
  O7       1.0000 0.43120  0.79465  0.81768  Biso   1.000  O
  O8       1.0000 0.54356  0.69222  0.87732  Biso   1.000  O
  C14      1.0000 0.44502  0.29212  0.07078  Biso   1.000  C
  C15      1.0000 0.29601  0.77673  0.29324  Biso   1.000  C
  C16      1.0000 0.19163  0.37638  0.64513  Biso   1.000  C
  C17      1.0000 0.09639  0.47993  0.42751  Biso   1.000  C
  N1       1.0000 0.46556  0.32124  0.24112  Biso   1.000  N
  C18      1.0000 0.76557  0.38896  0.32750  Biso   1.000  C
  O9       1.0000 0.08752  0.82595  0.53112  Biso   1.000  O
  O10      1.0000 0.08771  0.13790  0.21898  Biso   1.000  O
  O11      1.0000 0.02102  0.28050  0.67568  Biso   1.000  O
  O12      1.0000 0.10414  0.82685  0.43100  Biso   1.000  O
  O13      1.0000 0.28572  0.34493  0.13738  Biso   1.000  O
  C19      1.0000 0.52227  0.77047  0.52021  Biso   1.000  C
  O14      1.0000 0.33793  0.10875  0.93481  Biso   1.000  O
  O15      1.0000 0.14223  0.36955  0.26863  Biso   1.000  O
  C20      1.0000 0.45293  0.16386  0.21692  Biso   1.000  C
  C21      1.0000 0.67830  0.43550  0.83258  Biso   1.000  C
  O16      1.0000 0.38490  0.17208  0.85591  Biso   1.000  O
  O17      1.0000 0.22009  0.60636  0.42303  Biso   1.000  O
  O18      1.0000 0.03613  0.38119  0.69856  Biso   1.000  O
  C22      1.0000 0.42389  0.62578  0.46170  Biso   1.000  C
  O19      1.0000 0.29756  0.39314  0.51047  Biso   1.000  O
  O20      1.0000 0.30768  0.26635  0.19299  Biso   1.000  O
  O21      1.0000 0.07374  0.50316  0.52483  Biso   1.000  O
  C23      1.0000 0.71254  0.95334  0.97857  Biso   1.000  C
  O22      1.0000 0.48647  0.14669  0.35747  Biso   1.000  O
  C24      1.0000 0.99815  0.75378  0.15228  Biso   1.000  C
  O23      1.0000 0.60211  0.23006  0.14262  Biso   1.000  O
  O24      1.0000 0.22875  0.23867  0.91761  Biso   1.000  O
  C25      1.0000 0.27735  0.55784  0.27496  Biso   1.000  C
  C26      1.0000 0.69375  0.88435  0.63421  Biso   1.000  C
  C27      1.0000 0.14293  0.06334  0.04997  Biso   1.000  C
  C28      1.0000 0.78854  0.41141  0.00625  Biso   1.000  C
  O25      1.0000 0.22201  0.08009  0.11458  Biso   1.000  O
  O26      1.0000 0.22598  0.22261  0.23627  Biso   1.000  O
  C29      1.0000 0.68261  0.68154  0.12193  Biso   1.000  C
  C30      1.0000 0.33251  0.46406  0.65577  Biso   1.000  C
  O27      1.0000 0.82432  0.62471  0.36867  Biso   1.000  O
  O28      1.0000 0.40112  0.18471  0.31295  Biso   1.000  O
  O29      1.0000 0.40892  0.57930  0.86552  Biso   1.000  O
  C31      1.0000 0.95888  0.53009  0.36062  Biso   1.000  C
  O30      1.0000 0.39632  0.24575  0.92621  Biso   1.000  O
  C32      1.0000 0.15832  0.41358  0.42560  Biso   1.000  C
  C33      1.0000 0.83082  0.14864  0.20967  Biso   1.000  C
  N2       1.0000 0.88399  0.79573  0.52531  Biso   1.000  N
  O31      1.0000 0.52874  0.80715  0.01511  Biso   1.000  O
  C34      1.0000 0.89546  0.94738  0.44378  Biso   1.000  C
  O32      1.0000 0.46840  0.41576  0.56348  Biso   1.000  O
  C35      1.0000 0.88593  0.87452  0.12378  Biso   1.000  C
  C36      1.0000 0.02787  0.06682  0.18276  Biso   1.000  C
  C37      1.0000 0.40503  0.36842  0.35796  Biso   1.000  C
  O33      1.0000 0.24179  0.24462  0.48103  Biso   1.000  O
  C38      1.0000 0.70549  0.97398  0.31607  Biso   1.000  C
  C39      1.0000 0.92952  0.82072  0.94514  Biso   1.000  C
  O34      1.0000 0.06702  0.53117  0.90596  Biso   1.000  O
  C40      1.0000 0.92996  0.47266  0.53365  Biso   1.000  C
  C41      1.0000 0.36717  0.66354  0.62052  Biso   1.000  C
  N3       1.0000 0.60222  0.46200  0.78646  Biso   1.000  N
  C42      1.0000 0.18255  0.89186  0.05842  Biso   1.000  C
  O35      1.0000 0.24210  0.55569  0.51196  Biso   1.000  O
  O36      1.0000 0.76579  0.65646  0.92336  Biso   1.000  O
  C43      1.0000 0.84546  0.27763  0.22778  Biso   1.000  C
  C44      1.0000 0.03321  0.70218  0.46233  Biso   1.000  C
  O37      1.0000 0.83251  0.96563  0.67911  Biso   1.000  O
  C45      1.0000 0.58939  0.07812  0.52007  Biso   1.000  C
  O38      1.0000 0.32668  0.47685  0.24235  Biso   1.000  O
  C46      1.0000 0.72815  0.13001  0.97489  Biso   1.000  C
  O39      1.0000 0.34994  0.68083  0.00323  Biso   1.000  O
  C47      1.0000 0.63328  0.02857  0.33949  Biso   1.000  C
  O40      1.0000 0.04567  0.90835  0.98447  Biso   1.000  O
  C48      1.0000 0.39752  0.15198  0.14340  Biso   1.000  C
  C49      1.0000 0.17577  0.86780  0.21808  Biso   1.000  C
  C50      1.0000 0.77490  0.53799  0.25583  Biso   1.000  C
  C51      1.0000 0.05342  0.63780  0.62387  Biso   1.000  C
  O41      1.0000 0.37881  0.27360  0.56957  Biso   1.000  O
  C52      1.0000 0.39109  0.27264  0.25339  Biso   1.000  C
  O42      1.0000 0.39821  0.06340  0.10060  Biso   1.000  O
  C53      1.0000 0.20874  0.84712  0.13590  Biso   1.000  C
  C54      1.0000 0.61353  0.60089  0.36756  Biso   1.000  C
  C55      1.0000 0.03904  0.19606  0.87963  Biso   1.000  C
  C56      1.0000 0.86765  0.32732  0.55854  Biso   1.000  C
  O43      1.0000 0.42386  0.75240  0.19258  Biso   1.000  O
  C57      1.0000 0.17125  0.49042  0.53387  Biso   1.000  C
  O44      1.0000 0.94085  0.01962  0.20987  Biso   1.000  O
  O45      1.0000 0.62473  0.23391  0.50101  Biso   1.000  O
  C58      1.0000 0.10269  0.92034  0.21937  Biso   1.000  C
  O46      1.0000 0.27171  0.76080  0.45581  Biso   1.000  O
  O47      1.0000 0.16493  0.96707  0.41342  Biso   1.000  O
  C59      1.0000 0.21572  0.52050  0.96879  Biso   1.000  C
  O48      1.0000 0.37266  0.37197  0.82454  Biso   1.000  O
  O49      1.0000 0.88190  0.04076  0.73216  Biso   1.000  O
  C60      1.0000 0.95249  0.16099  0.46483  Biso   1.000  C
  O50      1.0000 0.51933  0.64542  0.70952  Biso   1.000  O
  C61      1.0000 0.64633  0.24734  0.77950  Biso   1.000  C
  C62      1.0000 0.25122  0.05163  0.26224  Biso   1.000  C
  O51      1.0000 0.80007  0.98370  0.94758  Biso   1.000  O
  C63      1.0000 0.74678  0.94223  0.39365  Biso   1.000  C
  O52      1.0000 0.37382  0.44926  0.56661  Biso   1.000  O
  O53      1.0000 0.08798  0.59284  0.70430  Biso   1.000  O
  C64      1.0000 0.03534  0.31076  0.98632  Biso   1.000  C
  C65      1.0000 0.19728  0.69992  0.43325  Biso   1.000  C
  O54      1.0000 0.32491  0.30385  0.48991  Biso   1.000  O
  O55      1.0000 0.67441  0.53826  0.03607  Biso   1.000  O
  C66      1.0000 0.79145  0.09148  0.40003  Biso   1.000  C
  C67      1.0000 0.76427  0.73609  0.70472  Biso   1.000  C
  C68      1.0000 0.56365  0.04035  0.17433  Biso   1.000  C
  O56      1.0000 0.20803  0.82225  0.30656  Biso   1.000  O
  C69      1.0000 0.02543  0.09641  0.59485  Biso   1.000  C
  C70      1.0000 0.84603  0.72008  0.14835  Biso   1.000  C
  C71      1.0000 0.96017  0.43283  0.16941  Biso   1.000  C
  O57      1.0000 0.25040  0.75552  0.12172  Biso   1.000  O
  C72      1.0000 0.60917  0.69160  0.18045  Biso   1.000  C
  O58      1.0000 0.08878  0.74158  0.02734  Biso   1.000  O
  O59      1.0000 0.97033  0.77945  0.32235  Biso   1.000  O
  N4       1.0000 0.14720  0.30310  0.91913  Biso   1.000  N
  C73      1.0000 0.92598  0.38441  0.09994  Biso   1.000  C
  C74      1.0000 0.58380  0.77156  0.59058  Biso   1.000  C
  O60      1.0000 0.03429  0.48508  0.99371  Biso   1.000  O
  O61      1.0000 0.63752  0.39734  0.23046  Biso   1.000  O
  C75      1.0000 0.81752  0.59479  0.77678  Biso   1.000  C
  O62      1.0000 0.66783  0.72319  0.73332  Biso   1.000  O
  C76      1.0000 0.72708  0.86063  0.25404  Biso   1.000  C
  C77      1.0000 0.79861  0.81404  0.66791  Biso   1.000  C
  C78      1.0000 0.71725  0.64797  0.54432  Biso   1.000  C
  O63      1.0000 0.49046  0.05897  0.49833  Biso   1.000  O
  C79      1.0000 0.44441  0.93521  0.19954  Biso   1.000  C
  C80      1.0000 0.16192  0.55763  0.90194  Biso   1.000  C
  C81      1.0000 0.30801  0.28813  0.94270  Biso   1.000  C
  C82      1.0000 0.62135  0.67556  0.41961  Biso   1.000  C
  C83      1.0000 0.69258  0.19728  0.92711  Biso   1.000  C
  C84      1.0000 0.96116  0.08384  0.41260  Biso   1.000  C
  O64      1.0000 0.32034  0.94442  0.04502  Biso   1.000  O
  O65      1.0000 0.55842  0.33302  0.38532  Biso   1.000  O
  O66      1.0000 0.00773  0.55133  0.75503  Biso   1.000  O
  C85      1.0000 0.96540  0.44147  0.65502  Biso   1.000  C
  C86      1.0000 0.48494  0.83299  0.33453  Biso   1.000  C
  N5       1.0000 0.54522  0.71490  0.45087  Biso   1.000  N
  O67      1.0000 0.96152  0.27138  0.58205  Biso   1.000  O
  O68      1.0000 0.39928  0.50193  0.18403  Biso   1.000  O
  O69      1.0000 0.15004  0.59489  0.09793  Biso   1.000  O
  O70      1.0000 0.11905  0.34203  0.82597  Biso   1.000  O
  O71      1.0000 0.45653  0.15376  0.51672  Biso   1.000  O
  C87      1.0000 0.76821  0.49215  0.17595  Biso   1.000  C
  O72      1.0000 0.55735  0.14765  0.20341  Biso   1.000  O
  C88      1.0000 0.58367  0.76252  0.23402  Biso   1.000  C
  C89      1.0000 0.01313  0.81584  0.99302  Biso   1.000  C
  O73      1.0000 0.24038  0.17206  0.07096  Biso   1.000  O
  C90      1.0000 0.22276  0.21772  0.81869  Biso   1.000  C
  C91      1.0000 0.42273  0.81668  0.40042  Biso   1.000  C
  C92      1.0000 0.55769  0.83660  0.92399  Biso   1.000  C
  C93      1.0000 0.57845  0.49425  0.66238  Biso   1.000  C
  C94      1.0000 0.45439  0.84540  0.06358  Biso   1.000  C
  O74      1.0000 0.36416  0.17610  0.54841  Biso   1.000  O
  C95      1.0000 0.80076  0.96701  0.84867  Biso   1.000  C
  O75      1.0000 0.77642  0.48054  0.51652  Biso   1.000  O
  C96      1.0000 0.54861  0.21476  0.77290  Biso   1.000  C
  O76      1.0000 0.84596  0.68402  0.73758  Biso   1.000  O
  O77      1.0000 0.39425  0.93724  0.89262  Biso   1.000  O
  C97      1.0000 0.30173  0.99231  0.21153  Biso   1.000  C
  O78      1.0000 0.53219  0.28072  0.46438  Biso   1.000  O
  O79      1.0000 0.50251  0.26269  0.69389  Biso   1.000  O
  C98      1.0000 0.10725  0.23289  0.69868  Biso   1.000  C
  C99      1.0000 0.32347  0.19956  0.12303  Biso   1.000  C
  O80      1.0000 0.87897  0.93233  0.59601  Biso   1.000  O
  C100     1.0000 0.72476  0.60653  0.08862  Biso   1.000  C
  O81      1.0000 0.08950  0.72523  0.19410  Biso   1.000  O
  C101     1.0000 0.61685  0.59147  0.97499  Biso   1.000  C
  O82      1.0000 0.62151  0.48058  0.09675  Biso   1.000  O
  C102     1.0000 0.81175  0.88200  0.81817  Biso   1.000  C
  O83      1.0000 0.10942  0.72796  0.39398  Biso   1.000  O
  C103     1.0000 0.43857  0.32559  0.88911  Biso   1.000  C
  O84      1.0000 0.29832  0.06074  0.35007  Biso   1.000  O
  C104     1.0000 0.03586  0.48516  0.82242  Biso   1.000  C
  O85      1.0000 0.32159  0.60019  0.05623  Biso   1.000  O
  C105     1.0000 0.96042  0.83643  0.16838  Biso   1.000  C
  C106     1.0000 0.75064  0.95582  0.61389  Biso   1.000  C
  O86      1.0000 0.66649  0.68864  0.96183  Biso   1.000  O
  C107     1.0000 0.45102  0.95994  0.81662  Biso   1.000  C
  C108     1.0000 0.42530  0.32274  0.71252  Biso   1.000  C
  C109     1.0000 0.63997  0.98289  0.73397  Biso   1.000  C
  C110     1.0000 0.04731  0.33530  0.56056  Biso   1.000  C
  C111     1.0000 0.54929  0.41100  0.63405  Biso   1.000  C
  O87      1.0000 0.94121  0.86286  0.46315  Biso   1.000  O
  O88      1.0000 0.22963  0.97538  0.90424  Biso   1.000  O
  C112     1.0000 0.27299  0.58107  0.76139  Biso   1.000  C
  O89      1.0000 0.47693  0.04289  0.38883  Biso   1.000  O
  O90      1.0000 0.68485  0.09426  0.05957  Biso   1.000  O
  O91      1.0000 0.44436  0.82836  0.49895  Biso   1.000  O
  C113     1.0000 0.67399  0.34592  0.86016  Biso   1.000  C
  C114     1.0000 0.22092  0.71519  0.70918  Biso   1.000  C
  C115     1.0000 0.72267  0.50112  0.88176  Biso   1.000  C
  C116     1.0000 0.42966  0.21560  0.01466  Biso   1.000  C
  C117     1.0000 0.83068  0.80072  0.09460  Biso   1.000  C
  O92      1.0000 0.73394  0.16346  0.35964  Biso   1.000  O
  O93      1.0000 0.68044  0.74996  0.05047  Biso   1.000  O
  O94      1.0000 0.02243  0.90086  0.51668  Biso   1.000  O
  C118     1.0000 0.19755  0.32587  0.09182  Biso   1.000  C
  O95      1.0000 0.95714  0.33794  0.82919  Biso   1.000  O
  C119     1.0000 0.55327  0.89762  0.32516  Biso   1.000  C
  C120     1.0000 0.84279  0.83734  0.59096  Biso   1.000  C
  C121     1.0000 0.34347  0.12150  0.62436  Biso   1.000  C
  C122     1.0000 0.24004  0.02728  0.42078  Biso   1.000  C
  O96      1.0000 0.95403  0.97457  0.85567  Biso   1.000  O
  C123     1.0000 0.79483  0.75552  0.93668  Biso   1.000  C
  O97      1.0000 0.79156  0.48484  0.33832  Biso   1.000  O
  C124     1.0000 0.79294  0.03187  0.78440  Biso   1.000  C
  C125     1.0000 0.83365  0.60574  0.97640  Biso   1.000  C
  O98      1.0000 0.46229  0.21130  0.43333  Biso   1.000  O
  O99      1.0000 0.01370  0.95552  0.68990  Biso   1.000  O
  C126     1.0000 0.93468  0.83384  0.75800  Biso   1.000  C
  C127     1.0000 0.32444  0.01194  0.90810  Biso   1.000  C
  C128     1.0000 0.93443  0.68549  0.14724  Biso   1.000  C
  C129     1.0000 0.52776  0.56049  0.36082  Biso   1.000  C
  C130     1.0000 0.16207  0.38785  0.03452  Biso   1.000  C
  C131     1.0000 0.24354  0.08091  0.49336  Biso   1.000  C
  O100     1.0000 0.31519  0.37660  0.98147  Biso   1.000  O
  N6       1.0000 0.67014  0.53467  0.33328  Biso   1.000  N
  C132     1.0000 0.49233  0.20277  0.60015  Biso   1.000  C
  C133     1.0000 0.78013  0.28867  0.57853  Biso   1.000  C
  C134     1.0000 0.50775  0.56772  0.86393  Biso   1.000  C
  C135     1.0000 0.17584  0.44422  0.20377  Biso   1.000  C
  C136     1.0000 0.60846  0.81444  0.07412  Biso   1.000  C
  O101     1.0000 0.83388  0.25640  0.06913  Biso   1.000  O
  C137     1.0000 0.60965  0.81450  0.75277  Biso   1.000  C
  O102     1.0000 0.03639  0.38852  0.79953  Biso   1.000  O
  O103     1.0000 0.30829  0.59634  0.36569  Biso   1.000  O
  C138     1.0000 0.96932  0.67273  0.93576  Biso   1.000  C
  O104     1.0000 0.81133  0.79097  0.37529  Biso   1.000  O
  O105     1.0000 0.56035  0.62851  0.80134  Biso   1.000  O
  C139     1.0000 0.66035  0.64187  0.79639  Biso   1.000  C
  C140     1.0000 0.89201  0.47169  0.34926  Biso   1.000  C
  O106     1.0000 0.87041  0.44586  0.04787  Biso   1.000  O
  O107     1.0000 0.15804  0.10493  0.95921  Biso   1.000  O
  O108     1.0000 0.58605  0.32125  0.65412  Biso   1.000  O
  C141     1.0000 0.53169  0.99021  0.84148  Biso   1.000  C
  C142     1.0000 0.76390  0.08421  0.11874  Biso   1.000  C
  O109     1.0000 0.24149  0.85705  0.49893  Biso   1.000  O
  O110     1.0000 0.26152  0.69699  0.62153  Biso   1.000  O
  C143     1.0000 0.93365  0.52298  0.16534  Biso   1.000  C
  C144     1.0000 0.28686  0.73725  0.77155  Biso   1.000  C
  C145     1.0000 0.30492  0.75658  0.55299  Biso   1.000  C
  C146     1.0000 0.65411  0.00378  0.03187  Biso   1.000  C
  C147     1.0000 0.88633  0.09186  0.25453  Biso   1.000  C
  C148     1.0000 0.12020  0.57734  0.25952  Biso   1.000  C
  O111     1.0000 0.74802  0.25229  0.41296  Biso   1.000  O
  O112     1.0000 0.08605  0.88484  0.71883  Biso   1.000  O
  C149     1.0000 0.35015  0.43972  0.33297  Biso   1.000  C
  C150     1.0000 0.36201  0.84850  0.86877  Biso   1.000  C
  C151     1.0000 0.23565  0.78127  0.94936  Biso   1.000  C
  O113     1.0000 0.52562  0.47652  0.30393  Biso   1.000  O
  C152     1.0000 0.65373  0.52830  0.61923  Biso   1.000  C
  C153     1.0000 0.49195  0.39254  0.34734  Biso   1.000  C
  C154     1.0000 0.31159  0.91770  0.52672  Biso   1.000  C
  O114     1.0000 0.62093  0.75463  0.89596  Biso   1.000  O
  O115     1.0000 0.79270  0.58886  0.52945  Biso   1.000  O
  C155     1.0000 0.40326  0.99712  0.74685  Biso   1.000  C
  C156     1.0000 0.54519  0.09083  0.95112  Biso   1.000  C
  O116     1.0000 0.34356  0.75980  0.38229  Biso   1.000  O
  O117     1.0000 0.47467  0.84774  0.16338  Biso   1.000  O
  O118     1.0000 0.44841  0.99490  0.56401  Biso   1.000  O
  C157     1.0000 0.39030  0.29307  0.41291  Biso   1.000  C
  O119     1.0000 0.92593  0.62199  0.36607  Biso   1.000  O
  O120     1.0000 0.11944  0.76146  0.28778  Biso   1.000  O
  O121     1.0000 0.62422  0.85726  0.25561  Biso   1.000  O
  O122     1.0000 0.38817  0.83666  0.67105  Biso   1.000  O
  C158     1.0000 0.41206  0.09033  0.75153  Biso   1.000  C
  C159     1.0000 0.17060  0.85509  0.57370  Biso   1.000  C
  C160     1.0000 0.14551  0.28196  0.21911  Biso   1.000  C
  C161     1.0000 0.20312  0.04266  0.71360  Biso   1.000  C
  O123     1.0000 0.95517  0.95134  0.28361  Biso   1.000  O
  C162     1.0000 0.79912  0.71039  0.23063  Biso   1.000  C
  C163     1.0000 0.77196  0.78564  0.02368  Biso   1.000  C
  C164     1.0000 0.38744  0.00948  0.34060  Biso   1.000  C
  C165     1.0000 0.71736  0.04130  0.73176  Biso   1.000  C
  C166     1.0000 0.59657  0.31492  0.90270  Biso   1.000  C
  O124     1.0000 0.14614  0.32789  0.56779  Biso   1.000  O
  C167     1.0000 0.41390  0.62307  0.55351  Biso   1.000  C
  O125     1.0000 0.88981  0.12905  0.93121  Biso   1.000  O
  C168     1.0000 0.35003  0.14470  0.71128  Biso   1.000  C
  C169     1.0000 0.36086  0.42792  0.91049  Biso   1.000  C
  C170     1.0000 0.93376  0.48690  0.98551  Biso   1.000  C
  C171     1.0000 0.23635  0.93354  0.99848  Biso   1.000  C
  C172     1.0000 0.81393  0.88026  0.72876  Biso   1.000  C
  O126     1.0000 0.01686  0.42740  0.56227  Biso   1.000  O
  C173     1.0000 0.38311  0.50913  0.93062  Biso   1.000  C
  O127     1.0000 0.19346  0.87109  0.40316  Biso   1.000  O
  C174     1.0000 0.62370  0.14188  0.46252  Biso   1.000  C
  O128     1.0000 0.50092  0.72050  0.97584  Biso   1.000  O
  C175     1.0000 0.08073  0.97700  0.48255  Biso   1.000  C
  C176     1.0000 0.48170  0.55692  0.43839  Biso   1.000  C
  C177     1.0000 0.66074  0.82454  0.57171  Biso   1.000  C
  C178     1.0000 0.81372  0.59574  0.06556  Biso   1.000  C
  O129     1.0000 0.05630  0.83413  0.33908  Biso   1.000  O
  C179     1.0000 0.24525  0.21571  0.33104  Biso   1.000  C
  O130     1.0000 0.24021  0.95465  0.68006  Biso   1.000  O
  C180     1.0000 0.63115  0.06487  0.60181  Biso   1.000  C
  C181     1.0000 0.37156  0.66326  0.39499  Biso   1.000  C
  C182     1.0000 0.21182  0.89653  0.84747  Biso   1.000  C
  N7       1.0000 0.73842  0.00274  0.53744  Biso   1.000  N
  C183     1.0000 0.06613  0.57999  0.03748  Biso   1.000  C
  C184     1.0000 0.56180  0.16850  0.99633  Biso   1.000  C
  O131     1.0000 0.15099  0.70541  0.11281  Biso   1.000  O
  C185     1.0000 0.78282  0.70288  0.40952  Biso   1.000  C
  C186     1.0000 0.51124  0.55700  0.66149  Biso   1.000  C
  C187     1.0000 0.06564  0.09066  0.76318  Biso   1.000  C
  C188     1.0000 0.14460  0.53024  0.18308  Biso   1.000  C
  O132     1.0000 0.98305  0.38411  0.24936  Biso   1.000  O
  C189     1.0000 0.37896  0.96365  0.25721  Biso   1.000  C
  C190     1.0000 0.93373  0.51152  0.70598  Biso   1.000  C
  O133     1.0000 0.02410  0.79240  0.71613  Biso   1.000  O
  C191     1.0000 0.98782  0.25352  0.15332  Biso   1.000  C
  O134     1.0000 0.58049  0.86727  0.15610  Biso   1.000  O
  O135     1.0000 0.20152  0.61727  0.83334  Biso   1.000  O
  C192     1.0000 0.47814  0.98015  0.03959  Biso   1.000  C
  C193     1.0000 0.28116  0.68427  0.84809  Biso   1.000  C
  C194     1.0000 0.94817  0.69954  0.42762  Biso   1.000  C
  O136     1.0000 0.81371  0.29073  0.89872  Biso   1.000  O
  C195     1.0000 0.85613  0.42012  0.53436  Biso   1.000  C
  C196     1.0000 0.01018  0.12624  0.82767  Biso   1.000  C
  C197     1.0000 0.25581  0.59796  0.60149  Biso   1.000  C
  O137     1.0000 0.59982  0.69362  0.65559  Biso   1.000  O
  O138     1.0000 0.44594  0.72487  0.88260  Biso   1.000  O
  C198     1.0000 0.75280  0.85479  0.42730  Biso   1.000  C
  O139     1.0000 0.54696  0.53470  0.13715  Biso   1.000  O
  O140     1.0000 0.29846  0.76320  0.02699  Biso   1.000  O
  C199     1.0000 0.98060  0.68376  0.30283  Biso   1.000  C
  C200     1.0000 0.34077  0.50604  0.39590  Biso   1.000  C
  C201     1.0000 0.92006  0.74300  0.89546  Biso   1.000  C
  O141     1.0000 0.37414  0.58169  0.76803  Biso   1.000  O
  C202     1.0000 0.09908  0.92252  0.05979  Biso   1.000  C
  C203     1.0000 0.39175  0.49272  0.72153  Biso   1.000  C
  C204     1.0000 0.97464  0.04409  0.03572  Biso   1.000  C
  O142     1.0000 0.93514  0.94525  0.75918  Biso   1.000  O
  C205     1.0000 0.59265  0.26911  0.31836  Biso   1.000  C
  C206     1.0000 0.62546  0.46503  0.29899  Biso   1.000  C
  C207     1.0000 0.19262  0.10493  0.64403  Biso   1.000  C
  C208     1.0000 0.58147  0.00951  0.66247  Biso   1.000  C
  O143     1.0000 0.39095  0.53004  0.02641  Biso   1.000  O
  O144     1.0000 0.05317  0.92835  0.30223  Biso   1.000  O
  O145     1.0000 0.30913  0.01608  0.11401  Biso   1.000  O
  C209     1.0000 0.04719  0.93711  0.88364  Biso   1.000  C
  O146     1.0000 0.79229  0.54321  0.42727  Biso   1.000  O
  C210     1.0000 0.66546  0.90889  0.91395  Biso   1.000  C
  C211     1.0000 0.97782  0.92723  0.60260  Biso   1.000  C
  C212     1.0000 0.57168  0.24964  0.58461  Biso   1.000  C
  C213     1.0000 0.27102  0.82954  0.87755  Biso   1.000  C
  C214     1.0000 0.35681  0.84632  0.04568  Biso   1.000  C
  O147     1.0000 0.19985  0.39642  0.51616  Biso   1.000  O
  N8       1.0000 0.21882  0.35601  0.78393  Biso   1.000  N
  C215     1.0000 0.06679  0.95018  0.14355  Biso   1.000  C
  O148     1.0000 0.15884  0.23586  0.08780  Biso   1.000  O
  C216     1.0000 0.14413  0.24935  0.77955  Biso   1.000  C
  O149     1.0000 0.95350  0.28172  0.24424  Biso   1.000  O
  C217     1.0000 0.47939  0.88640  0.69087  Biso   1.000  C
  O150     1.0000 0.06676  0.73028  0.78793  Biso   1.000  O
  C218     1.0000 0.81760  0.42770  0.77664  Biso   1.000  C
  C219     1.0000 0.68235  0.83047  0.87382  Biso   1.000  C
  C220     1.0000 0.86971  0.96494  0.15038  Biso   1.000  C
  C221     1.0000 0.16714  0.88937  0.65632  Biso   1.000  C
  C222     1.0000 0.66761  0.29850  0.70355  Biso   1.000  C
  C223     1.0000 0.40335  0.91909  0.51468  Biso   1.000  C
  C224     1.0000 0.54055  0.63374  0.16219  Biso   1.000  C
  O151     1.0000 0.57039  0.93794  0.91371  Biso   1.000  O
  C225     1.0000 0.73342  0.48109  0.97357  Biso   1.000  C
  C226     1.0000 0.46687  0.31841  0.53565  Biso   1.000  C
  C227     1.0000 0.28397  0.37900  0.66121  Biso   1.000  C
  C228     1.0000 0.84734  0.26482  0.39085  Biso   1.000  C
  C229     1.0000 0.92806  0.29418  0.09133  Biso   1.000  C
  C230     1.0000 0.79316  0.62607  0.27294  Biso   1.000  C
  C231     1.0000 0.48075  0.57408  0.06111  Biso   1.000  C
  C232     1.0000 0.80489  0.08266  0.95563  Biso   1.000  C
  O152     1.0000 0.24737  0.15447  0.96944  Biso   1.000  O
  C233     1.0000 0.78433  0.79149  0.27883  Biso   1.000  C
  O153     1.0000 0.44968  0.66988  0.14425  Biso   1.000  O
  C234     1.0000 0.90396  0.97854  0.36108  Biso   1.000  C
  O154     1.0000 0.56109  0.00121  0.99402  Biso   1.000  O
  C235     1.0000 0.49247  0.49390  0.21268  Biso   1.000  C
  O155     1.0000 0.72883  0.25634  0.85428  Biso   1.000  O
  C236     1.0000 0.69322  0.25828  0.18357  Biso   1.000  C
  C237     1.0000 0.96629  0.96989  0.98522  Biso   1.000  C
  C238     1.0000 0.79403  0.31753  0.99444  Biso   1.000  C
  C239     1.0000 0.75329  0.30736  0.66778  Biso   1.000  C
  O156     1.0000 0.52092  0.48842  0.50763  Biso   1.000  O
  C240     1.0000 0.53845  0.44410  0.96668  Biso   1.000  C
  C241     1.0000 0.03116  0.58590  0.55167  Biso   1.000  C
  C242     1.0000 0.37468  0.80845  0.57688  Biso   1.000  C
  C243     1.0000 0.72073  0.08574  0.64427  Biso   1.000  C
  C244     1.0000 0.16305  0.19258  0.63642  Biso   1.000  C
  C245     1.0000 0.29226  0.97594  0.59376  Biso   1.000  C
  C246     1.0000 0.20874  0.27235  0.39151  Biso   1.000  C
  O157     1.0000 0.44609  0.67312  0.03862  Biso   1.000  O
  C247     1.0000 0.77226  0.81228  0.86650  Biso   1.000  C
  C248     1.0000 0.08753  0.23757  0.01475  Biso   1.000  C
  C249     1.0000 0.63334  0.38838  0.42527  Biso   1.000  C
  C250     1.0000 0.50549  0.96059  0.64197  Biso   1.000  C
  C251     1.0000 0.89929  0.29407  0.74772  Biso   1.000  C
  C252     1.0000 0.26560  0.42427  0.19024  Biso   1.000  C
  C253     1.0000 0.57082  0.40830  0.04770  Biso   1.000  C
  C254     1.0000 0.00560  0.64946  0.79411  Biso   1.000  C
  O158     1.0000 0.19448  0.12031  0.21125  Biso   1.000  O
  C255     1.0000 0.70253  0.80696  0.49027  Biso   1.000  C
  C256     1.0000 0.85737  0.36783  0.84710  Biso   1.000  C
  O159     1.0000 0.71314  0.95948  0.21409  Biso   1.000  O
  C257     1.0000 0.23064  0.57400  0.04354  Biso   1.000  C
  C258     1.0000 0.86705  0.99059  0.51750  Biso   1.000  C
  O160     1.0000 0.63994  0.12458  0.36365  Biso   1.000  O
  C259     1.0000 0.14892  0.51741  0.68723  Biso   1.000  C
  O161     1.0000 0.70274  0.70686  0.46710  Biso   1.000  O
  C260     1.0000 0.98462  0.22462  0.32155  Biso   1.000  C
  O162     1.0000 0.84233  0.15277  0.09905  Biso   1.000  O
  C261     1.0000 0.81071  0.11546  0.61726  Biso   1.000  C
  C262     1.0000 0.89386  0.75402  0.80398  Biso   1.000  C
  O163     1.0000 0.04797  0.63972  0.24054  Biso   1.000  O
  C263     1.0000 0.15072  0.06009  0.78955  Biso   1.000  C
  O164     1.0000 0.37906  0.75907  0.73902  Biso   1.000  O
  O165     1.0000 0.87555  0.07405  0.35211  Biso   1.000  O
  C264     1.0000 0.93065  0.22783  0.40034  Biso   1.000  C
  C265     1.0000 0.02893  0.66158  0.00642  Biso   1.000  C
  C266     1.0000 0.39271  0.45668  0.09403  Biso   1.000  C
  C267     1.0000 0.37971  0.59476  0.14244  Biso   1.000  C
  O166     1.0000 0.84523  0.51729  0.11442  Biso   1.000  O
  O167     1.0000 0.47595  0.00714  0.13863  Biso   1.000  O
  O168     1.0000 0.98189  0.59119  0.87668  Biso   1.000  O
  C268     1.0000 0.87473  0.61785  0.57529  Biso   1.000  C
  C269     1.0000 0.52349  0.42717  0.80661  Biso   1.000  C
  O169     1.0000 0.97835  0.27373  0.90285  Biso   1.000  O
  C270     1.0000 0.18101  0.06859  0.55825  Biso   1.000  C
  O170     1.0000 0.99653  0.72518  0.64036  Biso   1.000  O
  C271     1.0000 0.36178  0.03400  0.60469  Biso   1.000  C
  O171     1.0000 0.31968  0.15857  0.36576  Biso   1.000  O
  C272     1.0000 0.93150  0.21623  0.69770  Biso   1.000  C
  C273     1.0000 0.78327  0.00143  0.15823  Biso   1.000  C
  C274     1.0000 0.12811  0.42986  0.68332  Biso   1.000  C
  C275     1.0000 0.10240  0.78684  0.86106  Biso   1.000  C
  C276     1.0000 0.90342  0.56014  0.93795  Biso   1.000  C
  O172     1.0000 0.05470  0.04169  0.08984  Biso   1.000  O
  O173     1.0000 0.31851  0.21046  0.78048  Biso   1.000  O
  C277     1.0000 0.06040  0.42405  0.28900  Biso   1.000  C
  C278     1.0000 0.68147  0.47656  0.54592  Biso   1.000  C
  C279     1.0000 0.82176  0.34030  0.72485  Biso   1.000  C
  O174     1.0000 0.11198  0.88330  0.82451  Biso   1.000  O
  O175     1.0000 0.29898  0.16135  0.47448  Biso   1.000  O
  C280     1.0000 0.88351  0.13465  0.68473  Biso   1.000  C
  O176     1.0000 0.57075  0.17239  0.30842  Biso   1.000  O
  O177     1.0000 0.36223  0.36590  0.07176  Biso   1.000  O
  C281     1.0000 0.07164  0.39330  0.00836  Biso   1.000  C
  O178     1.0000 0.13915  0.66356  0.75603  Biso   1.000  O
  C282     1.0000 0.94172  0.56483  0.54252  Biso   1.000  C
  C283     1.0000 0.22790  0.42972  0.98608  Biso   1.000  C
  O179     1.0000 0.08122  0.22332  0.16188  Biso   1.000  O
  C284     1.0000 0.65816  0.62108  0.60955  Biso   1.000  C
  C285     1.0000 0.78395  0.26064  0.16113  Biso   1.000  C
  C286     1.0000 0.55409  0.98523  0.35191  Biso   1.000  C
  C287     1.0000 0.23657  0.55007  0.68021  Biso   1.000  C
  C288     1.0000 0.54249  0.34692  0.20227  Biso   1.000  C
  C289     1.0000 0.04420  0.48948  0.35363  Biso   1.000  C
  O180     1.0000 0.89114  0.92421  0.93231  Biso   1.000  O
  C290     1.0000 0.91532  0.38934  0.31998  Biso   1.000  C
  C291     1.0000 0.60753  0.15423  0.07649  Biso   1.000  C
  C292     1.0000 0.16801  0.04658  0.88054  Biso   1.000  C
  C293     1.0000 0.61473  0.45109  0.48877  Biso   1.000  C
  C294     1.0000 0.18158  0.24000  0.55964  Biso   1.000  C
  C295     1.0000 0.90044  0.67702  0.64669  Biso   1.000  C
  C296     1.0000 0.90783  0.10848  0.03169  Biso   1.000  C
  C297     1.0000 0.72328  0.25963  0.51111  Biso   1.000  C
  O181     1.0000 0.41441  0.66338  0.71245  Biso   1.000  O
  C298     1.0000 0.68751  0.44423  0.16055  Biso   1.000  C
  C299     1.0000 0.17439  0.35115  0.36307  Biso   1.000  C
  C300     1.0000 0.95621  0.85442  0.25675  Biso   1.000  C
  O182     1.0000 0.36332  0.66762  0.90167  Biso   1.000  O
  C301     1.0000 0.18769  0.57599  0.32122  Biso   1.000  C
  N9       1.0000 0.76408  0.17890  0.26115  Biso   1.000  N
  C302     1.0000 0.53212  0.07913  0.86314  Biso   1.000  C
  O183     1.0000 0.74007  0.59817  0.84256  Biso   1.000  O
  C303     1.0000 0.51696  0.83272  0.76304  Biso   1.000  C
  C304     1.0000 0.30086  0.31758  0.78723  Biso   1.000  C
  O184     1.0000 0.84305  0.32753  0.31516  Biso   1.000  O
  O185     1.0000 0.48261  0.14337  0.81127  Biso   1.000  O
  C305     1.0000 0.55164  0.53526  0.93846  Biso   1.000  C
  C306     1.0000 0.40236  0.12425  0.01594  Biso   1.000  C
  O186     1.0000 0.90833  0.79059  0.39816  Biso   1.000  O
  C307     1.0000 0.35133  0.31141  0.65672  Biso   1.000  C
  C308     1.0000 0.61927  0.96927  0.17842  Biso   1.000  C
  C309     1.0000 0.75874  0.01758  0.44956  Biso   1.000  C
  C310     1.0000 0.85098  0.51288  0.75006  Biso   1.000  C
  N10      1.0000 0.84479  0.07833  0.53752  Biso   1.000  N
  C311     1.0000 0.96788  0.60406  0.18276  Biso   1.000  C
  C312     1.0000 0.65691  0.88927  0.72164  Biso   1.000  C
  C313     1.0000 0.32237  0.75908  0.20673  Biso   1.000  C
  C314     1.0000 0.14560  0.76741  0.94426  Biso   1.000  C
  C315     1.0000 0.04790  0.15621  0.30896  Biso   1.000  C
  C316     1.0000 0.09340  0.17645  0.94839  Biso   1.000  C
