512
Lattice="15.2912 0.0 0.0 0.0 15.2912 0.0 0.0 0.0 15.2912" Properties=species:S:1:pos:R:3 spacegroup="P 1" unit_cell=conventional pbc="T T T"
C        6.24951344      14.59713243      15.19853533
C        0.48259027       0.85921253      10.44312504
C        5.28723822      14.27815800      10.77524990
O        4.89700680       7.56608576       7.45996483
C        1.38278322       0.77725170       8.21305643
C        0.64299496      11.33918936       8.36550970
C       13.59402971       3.45229422      13.96835829
O       10.23256522       4.72712157       4.05751992
C       14.93338592       2.63100387       8.45817437
O        7.97894816       5.76325328      13.68608274
C        7.21102410       8.50206011       8.88342264
O       10.65796640       5.03692128       5.64337027
C        0.63015035       1.23751682       5.56125653
O        8.31994192       4.84990990       1.56994750
C        1.35480032       0.01192714       5.44794874
C       14.44941944       1.15310939      13.25624710
C        7.56455664      11.76153230       4.06333058
C        9.27380698       3.55948554      14.42892923
O        6.69540483       6.36068046      11.62773430
O        6.59356544      12.15115208      12.50330842
O        8.31168467      10.58487446      13.41527558
C        6.80488982       4.46686534       1.08231114
C        4.52634811      11.87713378       4.48399149
C        2.93025266       5.75530186       9.86481186
C        1.47391877       7.33870562       6.53714091
N        7.11897107       4.91214509       3.68701414
C       11.70648398       5.94766515       5.00786800
O        1.33828582      12.62976664       8.12146214
O        1.34119115       2.10865648       3.34846698
O        0.32142102       4.28918160      10.33195802
O        1.59242557      12.64352872       6.59050720
O        4.36900166       5.27439362       2.10070506
C        7.98613502      11.78141086       7.95463515
O        5.16735522       1.66291800      14.29436667
O        2.17486738       5.65086296       4.10767506
C        6.92584322       2.50561603       3.31696710
C       10.37202096       6.65931760      12.73114730
O        5.88558288       2.63130970      13.08789099
O        3.36544021       9.27197203       6.46863634
O        0.55247106       5.82885253      10.68182067
C        6.48178677       9.56892714       7.05994704
O        4.55004947       6.01158237       7.80569886
O        4.70479642       4.07281112       2.95104869
O        1.12757309       7.69392019       8.02528050
C       10.89559165      14.57771261      14.96350958
O        7.43871006       2.24306613       5.46614526
C       15.26291128      11.52620074       2.32854394
O        9.20698443       3.51789347       2.18083094
O        3.49786200       3.64955070      14.03135803
C        4.24101432       8.53004301       4.20446835
C       10.60827000      13.52277272       9.69783195
C        2.18557122       0.96854461       0.76410126
C       12.05772285       6.29095259       0.09557000
O        3.39479931       1.22467221       1.75206570
O        3.45550538       3.40397403       3.61285182
C       10.43792603      10.42156445       1.86445602
C        5.08447691       7.09603427      10.02751022
O       12.60484198       9.55256555       5.63740670
O        6.13360614       2.82443755       4.78538104
O        6.25287750       8.85819216      13.23483942
C       14.66242586       8.10571221       5.51431254
O        6.06020838       3.75781240      14.16286235
C        2.42090278       6.32413450       6.50793472
C       12.70423478       2.27288397       3.20610590
N       13.51726789      12.16766658       8.03262027
O        8.08506909      12.34229208       0.23105003
C       13.69265795      14.48657706       6.78592874
O        7.16239808       6.35746931       8.61628538
C       13.54693282      13.37246022       1.89274474
C        0.42616574       1.02175798       2.79461971
C        6.19339474       5.63358390       5.47363795
O        3.69725925       3.74053334       7.35552594
C       10.78778869      14.89332298       4.83308958
C       14.21347622      12.54979366      14.45232477
O        1.02481622       8.12222670      13.85321555
C       14.22020435       7.22753859       8.16014888
C        5.61446990      10.14632285       9.48849542
N        9.20866646       7.06453440      12.02591715
C        2.79140856      13.63760963       0.89331190
O        3.70199952       8.49716693       7.82848275
O       11.70984805      10.03806115      14.11928243
C       12.92809795       4.24529586       3.48302954
C        0.50782075      10.73717482       7.06958050
O       12.73007691      14.76564146      10.38440683
C        9.01248037       1.19454854       7.95249438
O        4.99532922       7.29160872       3.70582232
C       11.13428728       1.98800891      14.90723797
O        5.35100253      10.41070770       0.04939058
C        9.68361114       0.43686958       5.19120949
O        0.69834910      13.88976152      15.05372766
C        6.07855782       2.32395658       2.19275808
C        2.68773422      13.26970336       3.33470490
C       11.84915088       8.22651269       3.91194770
C        0.81685590       9.75272736       9.53972094
O        5.79245947       4.18367232       8.70940878
C        5.98023541       4.16899277       3.87463717
O        6.08910875       0.96946208       1.53829472
C        3.19188509      12.95348134       2.07807408
C        9.38160994       9.18832917       5.62043347
C        0.59696845       2.99799267      13.45059826
C       13.26740968       5.00511558       8.54074685
O        6.48132803      11.50509888       2.94477930
C        2.61861800       7.49911030       8.16351294
O       14.38672552       0.30001334       3.20916414
O        9.55287138       3.57676459       7.66104411
C        1.57025333      14.07310301       3.35443054
O        4.15477195      11.63354496       6.96988187
O        2.52197762      14.78766078       6.32168790
C        3.29861766       7.95906960      14.81396165
O        5.69841859       5.68786766      12.60820605
O       13.48530928       0.62326931      11.19560499
C       14.56471509       2.46173029       7.10780850
O        7.94117890       9.86924630      10.84941222
C        9.88316130       3.78212541      11.91949040
C        3.84145526       0.78948466       4.00996429
O       12.23403038      15.04195344      14.48963530
C       11.41916234      14.40782738       6.01938088
O        5.71615638       6.86972451       8.66414683
O        1.34531978       9.06523501      10.76959216
C        0.54039101       4.75189331      15.08201638
C        3.01664794      10.70261670       6.62491240
O        4.96826379       4.64623112       7.49131179
O       10.31253819       8.23064131       0.55155358
C       12.10222024       1.39883898       6.11693874
C       11.68660542      11.25569941      10.77601446
C        8.61888488       0.61699992       2.66571490
O        3.18102834      12.57318920       4.68767027
C        0.38885522       1.47422459       9.09597032
C       12.93681394      11.01088730       2.26844952
C       14.68215150       6.61849010       2.59048219
O        3.82891648      11.55280742       1.86124486
C        9.31494030      10.57539392       2.75929704
O        1.35755274      11.33964810       0.41806141
O       14.83751010      11.91872584       4.92911832
N        2.25086464       4.63476272      14.05460066
C       14.15934538       5.87809019       1.52820253
C        8.92700256      11.79807827       9.03067690
O        0.52433525       7.41745530      15.19501835
O        9.74844582       6.07580541       3.52400995
C       12.50086182       9.09505285      11.87789834
O       10.21192210      11.05844293      11.21334278
C       11.11792570      13.16006546       3.88457645
C       12.21170523      12.44764845      10.21314539
C       10.96761320       9.90823886       8.32330598
O        7.49972195       0.90172206       7.62006370
C        6.79556219      14.30048315       3.05120605
C        2.47595110       8.52683186      13.79174493
C        4.70984251       4.40585346      14.41501424
C        9.50118712      10.33012307       6.41634043
C       10.59037930       3.01664794      14.17662443
C       14.69728979       1.28201421       6.30914912
O        4.89838301      14.44131510       0.68840982
O        8.53891190       5.09227542       5.89200518
O        0.11820098       8.43049730      11.54531474
C       14.76212448       6.75060606      10.01604182
C        7.41531453      12.73741669       5.11536514
N        8.33706806      10.93167888       6.89434334
O       14.70279462       4.14972586       8.90024296
O        6.10547034       7.67511202       2.81403954
O        2.29429165       9.09658197       1.49746722
O        1.82041736       5.23004914      12.63007246
O        6.98089154       2.35117491       7.90126886
C       11.74685275       7.52556408       2.69048664
O        8.52255032       2.25774568       3.11038299
C        8.92501470      11.65984582       3.57844662
C        0.20077346      12.47517261      15.18446742
O        3.67569866       2.63100387       1.08506355
C        3.40626771       3.32920006      12.51875253
C        6.46404898      12.48801722       6.12290230
C        8.52774933      12.79261792      14.12891589
C        8.84519464       7.55767560      10.12858506
C        6.94816837      12.92718048       0.97221450
O        5.56844339       2.69278032       8.38584699
C       12.24458131      14.78674331      12.97718270
O       11.87239350       7.34803325       7.89821062
C        8.38890523       3.28393811      11.81856848
O       12.93574355      10.45948662      11.27848330
O        6.02855560      14.33152429      13.64923094
C        4.61381378      15.17361067       3.23454754
O        8.13782373       4.29254566       7.10092746
O        7.68398091       4.01684533      10.61041077
C        1.63998120       3.56116757      10.68365562
C        4.94624446       3.05151187       1.88127634
O       13.44050606      14.25644450       9.11370811
C       11.08245011       9.27457154       1.35510614
O        1.36856240      11.08963698       2.96802192
C        9.43237672       9.04428606      14.90876709
O        9.50363371       7.34864490       1.47942360
C       12.41263160      13.48683840      12.51080110
O        1.67316310      11.13138195       6.02442698
C        6.70626158       4.97866181      13.59555883
O        4.56167078       0.92878749       5.35299038
C        0.54834243       7.41867859      12.57578870
O        4.91749701       9.17762533       0.85982418
C       14.68597430      12.79001842       2.57473226
C       11.47818637      14.61563478       9.38711477
O       10.19143189      10.53013197      14.70753490
C        6.89663702      14.67863453      12.48709974
C        6.50334736       4.93508189      10.89528582
C        9.78590926      15.02956757      11.22328206
C        0.72342667       5.12713936       8.57163507
C        8.39930325       6.28468320       9.69538536
O       14.39223035      13.19416483       7.08211928
O        3.51131826      14.91473066      13.82691469
C        4.17434469       8.88525758      11.64256677
O        7.29283202       0.65583957       5.94567730
O       10.47217832       1.44134851       0.91089678
O        6.79479763      12.66661843       7.62954424
C       10.30611589       5.28953190      13.15287859
C        3.37813190      10.93611333      10.84421322
C       11.05049150       7.66272614      13.48316851
C        6.57001699       3.29678272       0.22416899
C       12.70209402      12.24396966       1.44654752
O       11.22282333       2.49949955       5.49932717
O       10.40474413      11.46778835       0.77174686
O        0.34298162      13.77523043       7.90065722
C        3.02077656       4.98294334       1.40403798
O       14.63581917       5.16750813      12.67931013
C        8.46016222      13.72568694       4.97208659
C       12.88727045      12.80393341       9.03648755
C        5.25206846       1.85788080       9.54721363
C        3.67049965       0.41714394       6.43423114
O       14.58826354      14.90234478      13.08422110
C       12.15390450      11.55280742      14.32296122
O       12.10390227       7.41378541       5.17331878
C       12.12500413       0.48733054      11.99441728
C       12.74750888       9.26249149      14.93032768
O        7.06896885       3.23103056       6.62613570
O        0.20948944      14.61104742      10.54939888
C       14.29237882      12.75041421      11.59072960
C        4.96107693       0.18257693      13.88593872
C       14.28855602      10.48196469       2.25147629
C        8.07008371       8.57056469       5.51737078
C        2.47824478       5.93069192       0.52785222
C        3.72401885       1.23721099       7.54406643
O        4.81963333       5.75866592      15.00785406
N       10.24724477       8.17574590       5.09625114
C        7.52831650       3.10059662       9.17701368
C       11.92912386       4.41411070       8.84641794
C        7.76410680       8.68112006      13.21052642
C        2.68880461       6.79265686       3.11588782
C        9.30408355      12.45376493       1.13338374
O       12.75102586       3.92066368       1.05708066
C        9.32228008      12.45468240      11.51075662
O        0.55644677       5.94093702      12.22577314
O        4.71412405       9.11875421       5.59183893
C       14.82206598      10.28684898      14.30889331
O       12.40620930      12.09488046       5.73863445
O        8.56842392       9.61067211      12.25345021
C       10.09754392       9.81496254      12.17775877
C       13.63990331       7.21270613       5.34060451
O       13.30961339       6.81773443       0.73198974
O        2.41662125       1.60450562      14.66747195
O        8.96140776       4.91229800      10.00227974
C        8.13017813      15.14149915      12.86723898
C       11.68094768       1.28767195       1.81567709
O        3.69267189      13.10532296       7.62923842
O        3.99895462      10.65781349       9.50393954
C       14.27662888       7.99699178       2.52824701
C        4.38643363      11.27343720      11.79792536
C        4.66259270      11.56901610       8.45588069
C       10.00212683       0.05780074       0.48733054
C       13.55304930       1.40464963       3.89206914
C        1.83800224       8.82822141       3.96837222
O       11.43812342       3.85781685       6.31465395
O        1.31580776      13.53026541      10.99177330
C        5.35421368       6.72384646       5.09151086
C        5.53556731      12.97458320      13.28453582
C        3.60337128      11.94655582      14.51685363
O        8.03736054       7.28656262       4.64745442
C        9.99631618       8.07834096       9.46876978
C        7.52250584       6.00240765       5.31124541
C        4.76458501      14.03273424       8.05418086
O        9.49476482      11.53919826      13.70030355
O       12.12133424       9.00437603       8.09592584
C        6.16632931      15.24716134      11.42023272
C        8.33660933       1.38889970      14.54376614
O        5.25344467      11.61825376       5.84567285
O        7.25827390      12.96296189       2.49827626
O        6.85672699      15.21321488       8.62438971
C        5.96815536       4.48139198       6.31388939
O       14.15858082       9.51097349       5.59764958
O        1.82638093      11.64363715       4.40050154
O        9.54507286      13.10853411       3.90858363
O        5.93558510      12.79353539      10.26115976
C        6.30089187       1.38125410      11.49179554
C        2.60867872      13.07535221       8.77256144
C        2.22502251       4.31150675       3.35045483
C        3.10594854       0.65232259      10.91180032
O       14.60569550      14.54713021       4.33673723
C       12.21950374      10.86271557       3.52660946
C       11.80419475      12.01337837       0.36209562
C        5.92442253       0.14496058       5.20818272
C       10.96929523       0.63152656      11.18948851
C        9.12227118       4.81550470      13.80336624
O        2.23465597       5.01383157       8.68219045
C        6.32902768       9.52748798       8.46383211
O       13.60626267       1.97332936      14.23931835
C        5.35237874       2.21263664      10.87632474
C        5.51798243       6.54341030      13.92248469
C       14.27831091       7.44528528      15.06963051
C        3.61407512      14.27494685      15.26795738
C       12.44596642      13.46023171      11.14361491
O        0.25780963       6.53545888       8.59778302
C        5.85821163       7.78520866      14.23029654
O        2.95823555      13.32001141       6.16480019
C        9.53712144       2.16951546       7.07248582
O        7.65966790      11.01730960      14.92176461
C        1.23445858      14.93950240       7.37876856
C        7.36577104       8.51597510       6.70350917
C       10.10350749      12.60820605       8.74213195
C       12.44275526       9.10957949       1.00249107
O        0.86089456      12.75484866       5.18494010
C        3.75016680       3.29846475       5.06199885
O        3.67309915      14.59774408      10.39893347
C        9.65104088       0.99194014       9.20239707
C        5.68159827      10.14204131       6.03987109
C        3.23898198      13.70901954      12.95883326
N       11.29132790       0.04189789       8.21810253
C        1.01120706       8.86874309       0.57311418
C        8.59059616       2.57656720      15.23508130
O        2.30881829      10.78656539       1.72500027
C       11.97025718      10.74787866       6.26205222
C        7.81747309       8.51719840      10.11497589
C        1.00371437       1.38630019      11.66993802
C        2.21110752       8.10800589       2.79951290
O       15.03201416       5.87350283       3.81301363
C        5.79475315      14.73536488       3.93304955
C       14.27785218       7.82175462      10.79528138
O        0.36851792      12.11674688      10.95048706
C       15.10495318       3.87662502       2.34444678
O        8.87638869      13.26159902       2.38695632
O        3.08148262       9.43879902      12.74276861
C        7.31133437      14.98766968       0.60537861
C        4.29927379      10.46330942      12.96831381
C       14.49865710      10.69680605       6.53882294
O       12.44260235       4.44561058      13.74250726
C       13.09125506       6.42413894       8.17100563
C        0.15566442       1.93036109      12.65606750
C        3.91164187       9.14352595       9.19750389
O        9.17196758      10.60628214      10.02475781
O        6.81895773      11.08413214      13.49601312
C       11.51121536      13.07076485       6.53392976
O        8.36367475       8.17620464       2.09718808
O        4.56381155      11.67024384       0.41270949
C       14.99455072      10.45551091       4.63063410
C        5.21078222       7.73795885       6.05378608
C       14.06882147      11.36136160      13.69265795
O        5.72104957       8.89473813      11.74410034
C        1.51505210      14.10643782       0.91426085
C        5.99032760       7.53428006      11.03305954
C       14.90341517       0.67418901       0.54620166
O       14.29941277      14.45400680      11.60877322
C        9.06232968       4.11501483       4.86810643
C        9.56403395       7.11086674       4.57191589
C        2.94539094       1.60450562       9.84799154
C        8.89137406       0.14541931      10.12996126
O        5.97809464       8.10494765       0.40384059
O        0.81303310      14.19558552       4.62145938
O        4.72696866       0.24588250       1.74334971
C        0.72159173      14.32953643      13.51191597
O       12.11506485       8.30633275       6.53347102
C       10.17568195      13.89801877      13.97539224
C       14.95204118      14.17845938       9.21447712
C        8.74167322       3.81729517       8.93938843
C        4.14422102      12.68466205      13.41879256
C        5.45605307      12.94124838       0.69850202
O        3.05594632       6.06173750       7.89270579
N        3.34602038       5.44382011      11.98723042
C        1.02129925      14.52939242       2.19505176
O        2.42885421       3.60658243       1.34256736
C        2.20392066       3.81286072      11.92025496
O       14.58015920       4.30783686       3.73472269
C        7.33044837      13.55411968      10.56423134
O        1.02084051      11.16685754      12.04839522
C       12.50208512       6.54004624      11.87575757
C       10.43395032      12.69888286      13.36175638
C       13.29890955      14.75509053       2.29949066
C        2.55577117      13.59953454      10.03592038
C       10.20855803       4.56442320      10.75812376
C        6.16770552      14.05398901       7.87007482
C        8.26565816       9.69064509       2.48007973
O        8.72194757      14.34222813      13.97172235
C       11.21487190       7.35644341      14.88705358
C        7.13900254       4.86887099       8.19073128
C        4.34224206       5.79536480      10.11069435
C       12.95684541       4.04941558       5.97656552
C       14.19115107       4.49836522       1.39654530
C       12.12836819       9.57336158       4.17358013
C        7.35124440       8.77837210       0.93444523
C       12.30773397       1.26397059      14.61272946
O        3.78258414       2.36203166      14.82390093
C       11.99334690      12.10283189       4.26364530
O        6.87614682      10.24326906       2.20575560
C       13.82263315      14.96305085       5.52134650
O        8.57973941       0.01850235      15.19975862
C        7.53045726       7.55232368       3.25213242
O       11.14468530       3.91974621      13.06296634
C       10.60016566       3.94941114       2.80700558
C       14.77573365      14.83078197      15.06519606
C       12.14167154       4.85541474      15.20618093
C       11.51870805       4.69990323      10.21115754
O        7.96549190       7.46852790       7.76227186
C        8.23354664       6.79082192      14.78169722
C        0.47647379       8.95911408       8.43569630
C        5.72930682      12.36217064       8.82118746
C       11.02082658       1.31106749       9.85166142
C        2.49323016       2.94477930       9.73162550
C        4.46900611      14.92329373       9.07930291
C        3.19188509       4.16455832       5.98665771
O        6.82125141      10.29281254       0.59054614
C       11.80878211      12.42073594      13.24982480
C        1.33843874       3.63273038       0.22554520
C        9.68452861       5.93879626       6.50288862
C        7.72954869      14.68857381       9.81649166
C       13.75122325       4.49668318      11.43353606
C        4.06134272       6.48759742       2.90899789
C        8.72852278       6.24339696       0.72939024
C        0.08563072       9.93102275      12.14289483
O        2.97383258       1.83968427       3.23026600
C       10.74252674      12.33938675       7.49681662
C       13.11021614       5.62456210      12.95317552
O       10.90476637      14.67160058       3.27369301
C        3.52676237       8.77714880       0.66577885
C       13.25823496      15.14730981       7.91319600
O        9.78545053       1.90497770       5.56064488
C        2.27716550       7.91181979      10.50857138
O       10.74573789      10.80873763       7.14251952
C       15.05602134       3.43470934       4.91688536
O       12.88023650       2.33603662       1.51459336
C       12.39672875       1.76552195       9.43864611
C       13.66819203      11.52987062      12.29381898
O        0.73351886       9.78208646       3.67814525
C        2.30468966       0.91884821      12.07316696
O        5.79628227      11.60709118      11.30050262
O       13.38821016       1.13231336       5.38418443
C       14.23075528       3.48379410       6.12167901
C        0.44237442      10.11635210       0.09816950
C        6.00500715       6.98318522       1.43783154
C        5.80622155       9.09459411       2.17807853
O       12.92458098       7.90998485       1.74961910
O        7.27784664       0.10917917       2.11981906
O       15.01427637       9.04000453      13.40548922
C       13.37567138       9.44766792       8.79687445
C        8.00479029       6.53194190      12.33403483
O       14.96014552       4.18566018      13.80565992
C        2.76786011       1.04882341       8.53631240
O       15.23813954      11.08887242       9.79187283
C        5.53205034       0.51990080       9.24643573
O        4.88829082       2.42472558       5.59290931
C       14.24375280       3.30641618      10.66867024
C       11.97713822       0.02186642       2.41952658
C        1.95895563       6.57307523      10.44878278
C        1.56581888      12.03172781      13.16664067
C       13.81437590       8.56521277      14.34238104
O        0.83642864       0.63749013       1.37376141
O        4.87040011       3.21818595      11.93447578
C        0.92358848       6.48423336       4.41915680
C       10.42049406       7.28717427       8.34777190
C       12.56569651       5.20359536      11.08382632
O        1.71230858      13.50671696      12.60774731
O        4.57176298       2.46723512       7.25536858
C       13.50992811       2.05896008      10.47034338
O        8.72745240       2.63604997       4.71611190
O        5.53893138       5.59505008       1.09729651
C        1.09546157       6.01402896       0.12783443
O        2.12777048      10.14662867      11.56060594
C       14.40002886       8.63692850       8.29578182
C        3.48486448       6.57093446      15.07834650
O        1.24195126       3.41483078       2.47533946
C       10.06405619       9.49705850       9.32075096
C       11.98753624       3.98549837       2.46387106
C        8.47270101      15.06534898       5.38112619
C        3.61743918       8.41123038      10.40122715
C        8.29532309       5.30482310       3.09295102
C        0.67587104       7.48473658       5.40742706
O       13.62659997      14.13227995      14.25613867
C       13.99634118       5.95347581       4.89287818
C        9.28986274       2.35836178       1.16962389
C        2.56907451       0.71226410      13.46451325
C        9.39995938       6.89770741       7.47387982
C        2.77657610       3.66988800       8.55756717
C       13.76880813      10.35244822       9.88866613
C       13.88181010       1.65878938       0.48457813
C       11.05981914       3.97005426       7.81548523
O        6.33682619      10.14387626      10.89421544
C       10.51285291       6.79280978       2.45500216
C        2.66663237       5.36950488       5.55177598
C       14.62159835      13.06510710       3.92601560
O        5.55559878      10.20871094      13.78761630
C        2.87000533       8.80757829       4.91183926
N       11.68370010       2.73559568       3.99329688
C        8.13675334       1.20999266      13.19844637
O       11.31655838       9.14673710      12.88375347
C        7.90493875      12.73328806      11.66779725
C        4.60051043       4.85617930      12.03769138
O       12.89124616       5.00832674       4.81917459
O        7.37968603       2.19229934      12.40529182
C        8.43523757       8.18476771      14.35017955
C        6.15256723       1.89993160       0.24374173
O       13.88945570      12.08906981       6.08834419
C        5.37225730       4.76183259      10.04203686
C        9.46938142      14.82130142       2.72825590
C       11.60204509       0.26881930       6.87431187
C       13.01250538       7.84255066      11.46931747
N       12.91785285       1.19775970       8.21932582
C       14.80004666       9.23680227       2.79461971
C       10.04494219      13.59800542      11.03474157
C        4.92942414      11.60724410       3.16114978
C        2.22639872      11.73461979      14.43886851
C        0.73244848       2.38863835       4.72436915
C        1.42819808       2.69813224      14.50202117
