data_cif

_audit_creation_method             'generated by GULP'

_symmetry_space_group_name_H-M     'P 1'
_symmetry_Int_Tables_number        1
_symmetry_cell_setting             triclinic

_cell_length_a                        7.6593
_cell_length_b                        7.6593
_cell_length_c                        7.6593
_cell_angle_alpha                   90.0000
_cell_angle_beta                    90.0000
_cell_angle_gamma                   90.0000

loop_
_atom_site_label
_atom_site_fract_x
_atom_site_fract_y
_atom_site_fract_z
_atom_site_occupancy
  C           0.02510      0.58715      0.36532  1.0000
  C           0.26039      0.10189      0.10637  1.0000
  C           0.09996      0.43981      0.26689  1.0000
  C           0.87924      0.96735      0.45264  1.0000
  C           0.47817      0.91540      0.98912  1.0000
  C           0.78558      0.44866      0.22183  1.0000
  C           0.91867      0.63321      0.71788  1.0000
  C           0.81046      0.55044      0.58905  1.0000
  C           0.13288      0.38046      0.64002  1.0000
  C           0.40614      0.76318      0.11725  1.0000
  C           0.88797      0.25346      0.74570  1.0000
  C           0.57300      0.89444      0.55680  1.0000
  C           0.42526      0.24067      0.63174  1.0000
  C           0.20312      0.98155      0.79732  1.0000
  C           0.52131      0.60729      0.40574  1.0000
  C           0.98923      0.93689      0.11871  1.0000
  C           0.13985      0.82011      0.85825  1.0000
  C           0.35043      0.68765      0.66345  1.0000
  C           0.73711      0.38166      0.68297  1.0000
  C           0.04283      0.26068      0.26433  1.0000
  C           0.93605      0.17507      0.42008  1.0000
  C           0.84402      0.61396      0.41527  1.0000
  C           0.48164      0.81456      0.68890  1.0000
  C           0.79420      0.29945      0.32918  1.0000
  C           0.66795      0.15710      0.01401  1.0000
  C           0.52051      0.60353      0.08847  1.0000
  C           0.60487      0.28045      0.57064  1.0000
  C           0.63581      0.98657      0.11738  1.0000
  C           0.48159      0.91539      0.24903  1.0000
  C           0.34051      0.05516      0.92302  1.0000
  C           0.80871      0.10986      0.88166  1.0000
  C           0.86112      0.76201      0.83705  1.0000
  C           0.30782      0.39538      0.57791  1.0000
  C           0.22897      0.68703      0.12351  1.0000
  C           0.07121      0.51211      0.77873  1.0000
  C           0.32567      0.10338      0.50792  1.0000
  C           0.11802      0.74218      0.42409  1.0000
  C           0.54271      0.31330      0.95636  1.0000
  C           0.06171      0.13279      0.10765  1.0000
  C           0.76867      0.93898      0.79556  1.0000
  C           0.39306      0.55697      0.53477  1.0000
  C           0.06757      0.89774      0.49765  1.0000
  C           0.99741      0.42902      0.95399  1.0000
  C           0.24027      0.50149      0.15841  1.0000
  C           0.19932      0.67030      0.76943  1.0000
  C           0.88940      0.51849      0.08144  1.0000
  C           0.80242      0.86044      0.15338  1.0000
  C           0.98165      0.22269      0.94752  1.0000
  C           0.77646      0.80421      0.34889  1.0000
  C           0.81916      0.69821      0.02510  1.0000
  C           0.15938      0.04145      0.60701  1.0000
  C           0.47839      0.26328      0.27587  1.0000
  C           0.43512      0.40042      0.12326  1.0000
  C           0.36797      0.08644      0.29066  1.0000
  C           0.62447      0.26725      0.39204  1.0000
  C           0.42316      0.20911      0.83164  1.0000
  C           0.64372      0.45370      0.84993  1.0000
  C           0.73814      0.96246      0.60193  1.0000
  C           0.10328      0.80286      0.04283  1.0000
  C           0.61615      0.53553      0.25408  1.0000
  C           0.57404      0.80687      0.38813  1.0000
  C           0.02714      0.21025      0.60329  1.0000
  C           0.63946      0.63874      0.93245  1.0000
  C           0.58845      0.82210      0.85238  1.0000
