data_cif

_audit_creation_method             'generated by GULP'

_symmetry_space_group_name_H-M     'P 1'
_symmetry_Int_Tables_number        1
_symmetry_cell_setting             triclinic

_cell_length_a                        7.6594
_cell_length_b                        7.6594
_cell_length_c                        7.6594
_cell_angle_alpha                   90.0000
_cell_angle_beta                    90.0000
_cell_angle_gamma                   90.0000

loop_
_atom_site_label
_atom_site_fract_x
_atom_site_fract_y
_atom_site_fract_z
_atom_site_occupancy
  C           0.02510      0.58715      0.36532  1.0000
  C           0.26034      0.10174      0.10630  1.0000
  C           0.09990      0.43974      0.26688  1.0000
  C           0.87918      0.96723      0.45256  1.0000
  C           0.47814      0.91524      0.98903  1.0000
  C           0.78555      0.44852      0.22177  1.0000
  C           0.91859      0.63302      0.71780  1.0000
  C           0.81041      0.55026      0.58894  1.0000
  C           0.13285      0.38032      0.63994  1.0000
  C           0.40611      0.76301      0.11715  1.0000
  C           0.88792      0.25328      0.74562  1.0000
  C           0.57295      0.89427      0.55671  1.0000
  C           0.42522      0.24051      0.63166  1.0000
  C           0.20308      0.98140      0.79724  1.0000
  C           0.52127      0.60713      0.40565  1.0000
  C           0.98919      0.93674      0.11863  1.0000
  C           0.13982      0.81996      0.85817  1.0000
  C           0.35039      0.68748      0.66337  1.0000
  C           0.73706      0.38148      0.68288  1.0000
  C           0.04279      0.26058      0.26426  1.0000
  C           0.93602      0.17495      0.42001  1.0000
  C           0.84400      0.61384      0.41518  1.0000
  C           0.48160      0.81439      0.68881  1.0000
  C           0.79416      0.29930      0.32910  1.0000
  C           0.66791      0.15693      0.01393  1.0000
  C           0.52047      0.60337      0.08838  1.0000
  C           0.60483      0.28027      0.57055  1.0000
  C           0.63576      0.98640      0.11729  1.0000
  C           0.48155      0.91523      0.24894  1.0000
  C           0.34046      0.05500      0.92295  1.0000
  C           0.80867      0.10969      0.88157  1.0000
  C           0.86103      0.76183      0.83695  1.0000
  C           0.30778      0.39521      0.57783  1.0000
  C           0.22894      0.68688      0.12343  1.0000
  C           0.07116      0.51197      0.77864  1.0000
  C           0.32563      0.10323      0.50784  1.0000
  C           0.11803      0.74213      0.42406  1.0000
  C           0.54267      0.31314      0.95627  1.0000
  C           0.06166      0.13267      0.10758  1.0000
  C           0.76861      0.93882      0.79547  1.0000
  C           0.39302      0.55681      0.53469  1.0000
  C           0.06751      0.89767      0.49760  1.0000
  C           0.99736      0.42888      0.95391  1.0000
  C           0.24022      0.50136      0.15837  1.0000
  C           0.19928      0.67015      0.76936  1.0000
  C           0.88936      0.51834      0.08137  1.0000
  C           0.80238      0.86029      0.15329  1.0000
  C           0.98159      0.22255      0.94745  1.0000
  C           0.77641      0.80408      0.34880  1.0000
  C           0.81911      0.69805      0.02502  1.0000
  C           0.15934      0.04134      0.60694  1.0000
  C           0.47835      0.26311      0.27578  1.0000
  C           0.43506      0.40027      0.12319  1.0000
  C           0.36793      0.08627      0.29058  1.0000
  C           0.62443      0.26708      0.39195  1.0000
  C           0.42312      0.20895      0.83156  1.0000
  C           0.64368      0.45353      0.84984  1.0000
  C           0.73808      0.96231      0.60185  1.0000
  C           0.10325      0.80271      0.04275  1.0000
  C           0.61610      0.53537      0.25399  1.0000
  C           0.57399      0.80671      0.38804  1.0000
  C           0.02710      0.21012      0.60323  1.0000
  C           0.63942      0.63858      0.93235  1.0000
  C           0.58841      0.82193      0.85229  1.0000
