data_cif

_audit_creation_method             'generated by GULP'

_symmetry_space_group_name_H-M     'P 1'
_symmetry_Int_Tables_number        1
_symmetry_cell_setting             triclinic

_cell_length_a                        7.5892
_cell_length_b                        7.5892
_cell_length_c                        7.5892
_cell_angle_alpha                   90.0000
_cell_angle_beta                    90.0000
_cell_angle_gamma                   90.0000

loop_
_atom_site_label
_atom_site_fract_x
_atom_site_fract_y
_atom_site_fract_z
_atom_site_occupancy
  C           0.08286      0.54642      0.42047  1.0000
  C           0.30424      0.09789      0.16126  1.0000
  C           0.13319      0.39825      0.32066  1.0000
  C           0.90886      0.92639      0.50390  1.0000
  C           0.50111      0.88763      0.03702  1.0000
  C           0.81667      0.44099      0.29445  1.0000
  C           0.94717      0.60571      0.76607  1.0000
  C           0.84389      0.51778      0.63358  1.0000
  C           0.15718      0.34853      0.69370  1.0000
  C           0.42155      0.73376      0.17117  1.0000
  C           0.91540      0.22050      0.79293  1.0000
  C           0.59982      0.86817      0.59772  1.0000
  C           0.45327      0.21399      0.66980  1.0000
  C           0.22928      0.95893      0.85698  1.0000
  C           0.54559      0.57650      0.44921  1.0000
  C           0.01634      0.92173      0.16899  1.0000
  C           0.17514      0.79357      0.92283  1.0000
  C           0.32321      0.69222      0.65077  1.0000
  C           0.76504      0.34651      0.71668  1.0000
  C           0.06444      0.22723      0.31582  1.0000
  C           0.94211      0.13846      0.45432  1.0000
  C           0.88461      0.57237      0.44382  1.0000
  C           0.48699      0.79480      0.72373  1.0000
  C           0.80226      0.23519      0.30732  1.0000
  C           0.72356      0.15118      0.11507  1.0000
  C           0.53250      0.57171      0.12679  1.0000
  C           0.62579      0.26427      0.58511  1.0000
  C           0.66624      0.95689      0.16184  1.0000
  C           0.51505      0.87568      0.29803  1.0000
  C           0.37279      0.03379      0.97524  1.0000
  C           0.84107      0.08300      0.94243  1.0000
  C           0.88591      0.73726      0.88204  1.0000
  C           0.33338      0.37045      0.63003  1.0000
  C           0.23916      0.66702      0.23895  1.0000
  C           0.10008      0.48235      0.83186  1.0000
  C           0.36002      0.06181      0.56285  1.0000
  C           0.20689      0.70807      0.45836  1.0000
  C           0.58069      0.28312      0.00367  1.0000
  C           0.09941      0.11072      0.15672  1.0000
  C           0.78543      0.91334      0.84885  1.0000
  C           0.40851      0.52701      0.56396  1.0000
  C           0.09876      0.86632      0.54934  1.0000
  C           0.07346      0.41265      0.02148  1.0000
  C           0.24163      0.45786      0.15628  1.0000
  C           0.20226      0.65624      0.80676  1.0000
  C           0.91978      0.50341      0.13093  1.0000
  C           0.83258      0.83225      0.19634  1.0000
  C           0.01790      0.21217      0.99436  1.0000
  C           0.81526      0.76955      0.39215  1.0000
  C           0.83804      0.67190      0.06667  1.0000
  C           0.18915      0.00984      0.66068  1.0000
  C           0.45997      0.21662      0.27469  1.0000
  C           0.43526      0.38000      0.13874  1.0000
  C           0.39243      0.02850      0.35725  1.0000
  C           0.62206      0.24294      0.40506  1.0000
  C           0.47061      0.17422      0.87314  1.0000
  C           0.67373      0.42460      0.88894  1.0000
  C           0.76377      0.93645      0.65175  1.0000
  C           0.13588      0.78736      0.10604  1.0000
  C           0.61615      0.48969      0.29566  1.0000
  C           0.61171      0.77031      0.43415  1.0000
  C           0.05086      0.17184      0.64456  1.0000
  C           0.65713      0.61125      0.97364  1.0000
  C           0.59998      0.79418      0.89146  1.0000
