data_cif

_audit_creation_method             'generated by GULP'

_symmetry_space_group_name_H-M     'P 1'
_symmetry_Int_Tables_number        1
_symmetry_cell_setting             triclinic

_cell_length_a                        7.7790
_cell_length_b                        7.3721
_cell_length_c                        7.7097
_cell_angle_alpha                   89.0396
_cell_angle_beta                    88.8737
_cell_angle_gamma                   90.3638

loop_
_atom_site_label
_atom_site_fract_x
_atom_site_fract_y
_atom_site_fract_z
_atom_site_occupancy
  C           0.47604      0.51988      0.06502  1.0000
  C           0.41116      0.73587      0.30646  1.0000
  C           0.29063      0.25652      0.90216  1.0000
  C           0.12945      0.01483      0.62117  1.0000
  C           0.96308      0.85396      0.88273  1.0000
  C           0.79703      0.48371      0.58049  1.0000
  C           0.61969      0.41787      0.67919  1.0000
  C           0.79321      0.71548      0.32671  1.0000
  C           0.89015      0.25438      0.32922  1.0000
  C           0.68011      0.16499      0.13087  1.0000
  C           0.88152      0.03767      0.36646  1.0000
  C           0.96530      0.95683      0.52773  1.0000
  C           0.51171      0.06335      0.14194  1.0000
  C           0.56191      0.98660      0.48675  1.0000
  C           0.46338      0.32150      0.99817  1.0000
  C           0.95315      0.35993      0.48703  1.0000
  C           0.15953      0.41855      0.83100  1.0000
  C           0.83132      0.73413      0.81561  1.0000
  C           0.92344      0.95531      0.03848  1.0000
  C           0.14913      0.91465      0.79804  1.0000
  C           0.86833      0.65649      0.65408  1.0000
  C           0.88253      0.13436      0.72406  1.0000
  C           0.50219      0.59810      0.41242  1.0000
  C           0.65367      0.70546      0.88308  1.0000
  C           0.63990      0.59017      0.02944  1.0000
  C           0.78815      0.97904      0.71605  1.0000
  C           0.48073      0.44900      0.57746  1.0000
  C           0.35985      0.64182      0.14001  1.0000
  C           0.59646      0.95687      0.68318  1.0000
  C           0.72392      0.33284      0.23734  1.0000
  C           0.00460      0.18977      0.15031  1.0000
  C           0.97164      0.40008      0.89342  1.0000
  C           0.51011      0.78675      0.78476  1.0000
  C           0.84211      0.14272      0.02826  1.0000
  C           0.35826      0.17849      0.70358  1.0000
  C           0.11535      0.48453      0.45096  1.0000
  C           0.18251      0.16013      0.07563  1.0000
  C           0.28506      0.40335      0.51239  1.0000
  C           0.10002      0.68431      0.41959  1.0000
  C           0.93315      0.50421      0.03723  1.0000
  C           0.82884      0.25497      0.86545  1.0000
  C           0.36358      0.21448      0.17263  1.0000
  C           0.40528      0.12253      0.50369  1.0000
  C           0.98628      0.71629      0.26710  1.0000
  C           0.39786      0.28502      0.36178  1.0000
  C           0.56628      0.39923      0.33851  1.0000
  C           0.31869      0.76700      0.79074  1.0000
  C           0.93977      0.90987      0.21558  1.0000
  C           0.76793      0.48687      0.10573  1.0000
  C           0.25889      0.80776      0.41538  1.0000
  C           0.70574      0.55808      0.41187  1.0000
  C           0.96049      0.76436      0.53510  1.0000
  C           0.23568      0.60297      0.87141  1.0000
  C           0.04714      0.61422      0.11909  1.0000
  C           0.62349      0.28680      0.84629  1.0000
  C           0.44236      0.00617      0.96500  1.0000
  C           0.52208      0.91480      0.28608  1.0000
  C           0.20857      0.63827      0.05022  1.0000
  C           0.02804      0.21059      0.61145  1.0000
  C           0.27132      0.96675      0.49403  1.0000
  C           0.72033      0.90634      0.35774  1.0000
  C           0.25206      0.99370      0.95706  1.0000
  C           0.51251      0.10174      0.80372  1.0000
  C           0.19614      0.30535      0.66834  1.0000
