data_cif

_audit_creation_method             'generated by GULP'

_symmetry_space_group_name_H-M     'P 1'
_symmetry_Int_Tables_number        1
_symmetry_cell_setting             triclinic

_cell_length_a                        7.5736
_cell_length_b                        7.5736
_cell_length_c                        7.5736
_cell_angle_alpha                   90.0000
_cell_angle_beta                    90.0000
_cell_angle_gamma                   90.0000

loop_
_atom_site_label
_atom_site_fract_x
_atom_site_fract_y
_atom_site_fract_z
_atom_site_occupancy
  C           0.47604      0.51988      0.06502  1.0000
  C           0.41268      0.73914      0.30489  1.0000
  C           0.29015      0.25764      0.91176  1.0000
  C           0.10642      0.00906      0.61178  1.0000
  C           0.96727      0.85354      0.88009  1.0000
  C           0.79704      0.47528      0.58081  1.0000
  C           0.61382      0.41694      0.67880  1.0000
  C           0.79325      0.71152      0.32963  1.0000
  C           0.88396      0.24641      0.32523  1.0000
  C           0.68467      0.15984      0.13838  1.0000
  C           0.87702      0.03695      0.35397  1.0000
  C           0.95139      0.93171      0.51719  1.0000
  C           0.51540      0.05694      0.14799  1.0000
  C           0.55575      0.98062      0.49482  1.0000
  C           0.46909      0.32853      0.00130  1.0000
  C           0.95109      0.35019      0.48506  1.0000
  C           0.16113      0.41710      0.82995  1.0000
  C           0.83772      0.73097      0.81705  1.0000
  C           0.92993      0.95290      0.03461  1.0000
  C           0.14875      0.91284      0.78881  1.0000
  C           0.87547      0.64465      0.65694  1.0000
  C           0.89217      0.12435      0.72536  1.0000
  C           0.50386      0.60170      0.41211  1.0000
  C           0.65603      0.70353      0.88338  1.0000
  C           0.64198      0.58709      0.02885  1.0000
  C           0.79361      0.97266      0.72091  1.0000
  C           0.46948      0.46804      0.57582  1.0000
  C           0.35971      0.64247      0.13730  1.0000
  C           0.59493      0.95102      0.68926  1.0000
  C           0.71614      0.33810      0.23401  1.0000
  C           0.00684      0.18054      0.15619  1.0000
  C           0.97118      0.39564      0.89270  1.0000
  C           0.50993      0.78436      0.78086  1.0000
  C           0.84391      0.13485      0.02803  1.0000
  C           0.35544      0.17349      0.71049  1.0000
  C           0.11517      0.47735      0.44247  1.0000
  C           0.18218      0.15514      0.08051  1.0000
  C           0.28200      0.39890      0.51566  1.0000
  C           0.10472      0.67315      0.41751  1.0000
  C           0.93487      0.49839      0.03749  1.0000
  C           0.83373      0.24769      0.86773  1.0000
  C           0.37079      0.21078      0.16751  1.0000
  C           0.39768      0.11617      0.50554  1.0000
  C           0.98337      0.71843      0.26292  1.0000
  C           0.39453      0.27600      0.36505  1.0000
  C           0.55589      0.39762      0.33819  1.0000
  C           0.31438      0.76050      0.77631  1.0000
  C           0.96109      0.91094      0.21059  1.0000
  C           0.76905      0.48496      0.10960  1.0000
  C           0.25700      0.80440      0.41195  1.0000
  C           0.71012      0.54947      0.40433  1.0000
  C           0.95820      0.74747      0.53210  1.0000
  C           0.23381      0.60367      0.85857  1.0000
  C           0.04222      0.62112      0.10893  1.0000
  C           0.62569      0.28688      0.84376  1.0000
  C           0.44151      0.00761      0.96692  1.0000
  C           0.52269      0.91188      0.28520  1.0000
  C           0.20641      0.64832      0.04051  1.0000
  C           0.03735      0.20979      0.61045  1.0000
  C           0.25939      0.96295      0.48987  1.0000
  C           0.71884      0.89469      0.36746  1.0000
  C           0.24600      0.00062      0.95153  1.0000
  C           0.51949      0.09844      0.80717  1.0000
  C           0.20188      0.30226      0.66840  1.0000
