data_cif

_audit_creation_method             'generated by GULP'

_symmetry_space_group_name_H-M     'P 1'
_symmetry_Int_Tables_number        1
_symmetry_cell_setting             triclinic

_cell_length_a                        7.5768
_cell_length_b                        7.5768
_cell_length_c                        7.5768
_cell_angle_alpha                   90.0000
_cell_angle_beta                    90.0000
_cell_angle_gamma                   90.0000

loop_
_atom_site_label
_atom_site_fract_x
_atom_site_fract_y
_atom_site_fract_z
_atom_site_occupancy
  C           0.08286      0.54642      0.42047  1.0000
  C           0.30373      0.09786      0.16092  1.0000
  C           0.13353      0.39805      0.32087  1.0000
  C           0.90836      0.92625      0.50356  1.0000
  C           0.50041      0.88759      0.03661  1.0000
  C           0.81670      0.44094      0.29403  1.0000
  C           0.94697      0.60588      0.76560  1.0000
  C           0.84339      0.51792      0.63315  1.0000
  C           0.15656      0.34834      0.69316  1.0000
  C           0.42088      0.73356      0.17087  1.0000
  C           0.91508      0.22068      0.79260  1.0000
  C           0.59908      0.86884      0.59735  1.0000
  C           0.45286      0.21369      0.66949  1.0000
  C           0.22834      0.95892      0.85691  1.0000
  C           0.54545      0.57627      0.44909  1.0000
  C           0.01572      0.92185      0.16902  1.0000
  C           0.17448      0.79336      0.92287  1.0000
  C           0.32337      0.69209      0.65114  1.0000
  C           0.76471      0.34653      0.71629  1.0000
  C           0.06465      0.22694      0.31613  1.0000
  C           0.94188      0.13817      0.45440  1.0000
  C           0.88438      0.57242      0.44339  1.0000
  C           0.48647      0.79528      0.72357  1.0000
  C           0.80210      0.23514      0.30700  1.0000
  C           0.72309      0.15095      0.11460  1.0000
  C           0.53206      0.57148      0.12640  1.0000
  C           0.62550      0.26412      0.58487  1.0000
  C           0.66553      0.95685      0.16166  1.0000
  C           0.51439      0.87546      0.29799  1.0000
  C           0.37211      0.03380      0.97491  1.0000
  C           0.84069      0.08317      0.94221  1.0000
  C           0.88603      0.73769      0.88168  1.0000
  C           0.33286      0.37014      0.62943  1.0000
  C           0.23849      0.66664      0.23894  1.0000
  C           0.09974      0.48218      0.83149  1.0000
  C           0.35962      0.06133      0.56279  1.0000
  C           0.20671      0.70819      0.45865  1.0000
  C           0.58008      0.28317      0.00308  1.0000
  C           0.09899      0.11070      0.15660  1.0000
  C           0.78517      0.91367      0.84854  1.0000
  C           0.40817      0.52686      0.56374  1.0000
  C           0.09817      0.86605      0.54934  1.0000
  C           0.07331      0.41255      0.02109  1.0000
  C           0.24120      0.45734      0.15572  1.0000
  C           0.20248      0.65583      0.80702  1.0000
  C           0.91966      0.50341      0.13042  1.0000
  C           0.83194      0.83227      0.19614  1.0000
  C           0.01791      0.21216      0.99425  1.0000
  C           0.81488      0.76944      0.39192  1.0000
  C           0.83775      0.67201      0.06625  1.0000
  C           0.18857      0.00966      0.66062  1.0000
  C           0.45970      0.21652      0.27471  1.0000
  C           0.43476      0.37963      0.13817  1.0000
  C           0.39177      0.02833      0.35730  1.0000
  C           0.62180      0.24288      0.40469  1.0000
  C           0.47002      0.17412      0.87267  1.0000
  C           0.67328      0.42466      0.88843  1.0000
  C           0.76323      0.93718      0.65140  1.0000
  C           0.13519      0.78718      0.10615  1.0000
  C           0.61594      0.48936      0.29537  1.0000
  C           0.61133      0.77020      0.43405  1.0000
  C           0.05040      0.17156      0.64418  1.0000
  C           0.65677      0.61131      0.97318  1.0000
  C           0.59953      0.79426      0.89113  1.0000
