data_cif

_audit_creation_method             'generated by GULP'

_symmetry_space_group_name_H-M     'P 1'
_symmetry_Int_Tables_number        1
_symmetry_cell_setting             triclinic

_cell_length_a                        7.5936
_cell_length_b                        7.5936
_cell_length_c                        7.5936
_cell_angle_alpha                   90.0000
_cell_angle_beta                    90.0000
_cell_angle_gamma                   90.0000

loop_
_atom_site_label
_atom_site_fract_x
_atom_site_fract_y
_atom_site_fract_z
_atom_site_occupancy
  C           0.03578      0.52617      0.33989  1.0000
  C           0.23981      0.05619      0.07492  1.0000
  C           0.08601      0.37424      0.24324  1.0000
  C           0.86089      0.90812      0.42021  1.0000
  C           0.44819      0.86111      0.95411  1.0000
  C           0.78260      0.42649      0.22031  1.0000
  C           0.90581      0.58257      0.68862  1.0000
  C           0.79691      0.49852      0.55758  1.0000
  C           0.11678      0.32807      0.61313  1.0000
  C           0.37141      0.70948      0.09242  1.0000
  C           0.86873      0.20324      0.71591  1.0000
  C           0.55099      0.84977      0.51619  1.0000
  C           0.40546      0.18956      0.59451  1.0000
  C           0.17700      0.93013      0.77315  1.0000
  C           0.50139      0.55834      0.36942  1.0000
  C           0.96050      0.89470      0.08624  1.0000
  C           0.12501      0.76593      0.84207  1.0000
  C           0.27880      0.66820      0.57120  1.0000
  C           0.71736      0.33022      0.64761  1.0000
  C           0.02562      0.19836      0.24091  1.0000
  C           0.91597      0.11614      0.39389  1.0000
  C           0.83685      0.56110      0.36871  1.0000
  C           0.44146      0.77309      0.64250  1.0000
  C           0.77476      0.24102      0.29266  1.0000
  C           0.64918      0.10841      0.98414  1.0000
  C           0.48400      0.54698      0.05121  1.0000
  C           0.58499      0.22906      0.53081  1.0000
  C           0.60975      0.93461      0.07958  1.0000
  C           0.46100      0.86220      0.21535  1.0000
  C           0.31665      0.00601      0.89133  1.0000
  C           0.79284      0.05919      0.85285  1.0000
  C           0.84566      0.71494      0.80360  1.0000
  C           0.29153      0.34824      0.54805  1.0000
  C           0.19084      0.64140      0.16096  1.0000
  C           0.05836      0.45701      0.75354  1.0000
  C           0.30816      0.04766      0.47860  1.0000
  C           0.16125      0.68671      0.37998  1.0000
  C           0.52087      0.25765      0.91759  1.0000
  C           0.03995      0.08222      0.07777  1.0000
  C           0.74182      0.88631      0.76319  1.0000
  C           0.36592      0.50514      0.48340  1.0000
  C           0.05294      0.84800      0.46367  1.0000
  C           0.03065      0.38655      0.94410  1.0000
  C           0.20203      0.43082      0.08156  1.0000
  C           0.16135      0.62887      0.72910  1.0000
  C           0.87695      0.48156      0.05217  1.0000
  C           0.77737      0.81033      0.11490  1.0000
  C           0.96606      0.18650      0.91851  1.0000
  C           0.76435      0.75295      0.31183  1.0000
  C           0.78866      0.64748      0.98458  1.0000
  C           0.14031      0.98936      0.57968  1.0000
  C           0.45130      0.21126      0.23602  1.0000
  C           0.40477      0.33942      0.07488  1.0000
  C           0.34509      0.03122      0.26201  1.0000
  C           0.60147      0.21538      0.34970  1.0000
  C           0.40353      0.15360      0.79362  1.0000
  C           0.61855      0.40125      0.81254  1.0000
  C           0.71714      0.91207      0.56842  1.0000
  C           0.08273      0.76030      0.02590  1.0000
  C           0.57904      0.47293      0.21828  1.0000
  C           0.55967      0.75472      0.35146  1.0000
  C           0.00866      0.15786      0.57477  1.0000
  C           0.60664      0.58613      0.89685  1.0000
  C           0.55405      0.77054      0.81043  1.0000
