data_cif

_audit_creation_method             'generated by GULP'

_symmetry_space_group_name_H-M     'P 1'
_symmetry_Int_Tables_number        1
_symmetry_cell_setting             triclinic

_cell_length_a                        7.6467
_cell_length_b                        7.6467
_cell_length_c                        7.6467
_cell_angle_alpha                   90.0000
_cell_angle_beta                    90.0000
_cell_angle_gamma                   90.0000

loop_
_atom_site_label
_atom_site_fract_x
_atom_site_fract_y
_atom_site_fract_z
_atom_site_occupancy
  C           0.02510      0.58715      0.36532  1.0000
  C           0.26051      0.10188      0.10644  1.0000
  C           0.09992      0.43957      0.26699  1.0000
  C           0.87919      0.96720      0.45257  1.0000
  C           0.47794      0.91558      0.98898  1.0000
  C           0.78574      0.44832      0.22157  1.0000
  C           0.91919      0.63368      0.71769  1.0000
  C           0.81035      0.55088      0.58912  1.0000
  C           0.13268      0.38032      0.63980  1.0000
  C           0.40585      0.76326      0.11725  1.0000
  C           0.88818      0.25387      0.74576  1.0000
  C           0.57255      0.89522      0.55681  1.0000
  C           0.42528      0.24063      0.63184  1.0000
  C           0.20262      0.98177      0.79744  1.0000
  C           0.52153      0.60737      0.40584  1.0000
  C           0.98897      0.93703      0.11903  1.0000
  C           0.13908      0.82022      0.85821  1.0000
  C           0.35001      0.68790      0.66326  1.0000
  C           0.73722      0.38189      0.68297  1.0000
  C           0.04330      0.26025      0.26454  1.0000
  C           0.93604      0.17472      0.42000  1.0000
  C           0.84390      0.61417      0.41515  1.0000
  C           0.48116      0.81508      0.68895  1.0000
  C           0.79413      0.29893      0.32891  1.0000
  C           0.66816      0.15753      0.01441  1.0000
  C           0.52044      0.60356      0.08841  1.0000
  C           0.60500      0.28032      0.57073  1.0000
  C           0.63555      0.98683      0.11752  1.0000
  C           0.48129      0.91534      0.24928  1.0000
  C           0.34029      0.05527      0.92296  1.0000
  C           0.80894      0.11022      0.88194  1.0000
  C           0.86196      0.76263      0.83712  1.0000
  C           0.30773      0.39529      0.57759  1.0000
  C           0.22861      0.68695      0.12347  1.0000
  C           0.07120      0.51174      0.77878  1.0000
  C           0.32571      0.10318      0.50824  1.0000
  C           0.11861      0.74200      0.42402  1.0000
  C           0.54269      0.31337      0.95641  1.0000
  C           0.06190      0.13253      0.10782  1.0000
  C           0.76886      0.93939      0.79566  1.0000
  C           0.39298      0.55706      0.53463  1.0000
  C           0.06765      0.89755      0.49775  1.0000
  C           0.99800      0.42891      0.95406  1.0000
  C           0.23996      0.50130      0.15806  1.0000
  C           0.19879      0.67044      0.76925  1.0000
  C           0.88986      0.51855      0.08146  1.0000
  C           0.80208      0.86069      0.15360  1.0000
  C           0.98222      0.22252      0.94772  1.0000
  C           0.77634      0.80429      0.34900  1.0000
  C           0.81943      0.69840      0.02510  1.0000
  C           0.15928      0.04141      0.60712  1.0000
  C           0.47804      0.26319      0.27593  1.0000
  C           0.43510      0.40004      0.12311  1.0000
  C           0.36764      0.08624      0.29075  1.0000
  C           0.62438      0.26691      0.39197  1.0000
  C           0.42300      0.20933      0.83169  1.0000
  C           0.64371      0.45385      0.84992  1.0000
  C           0.73798      0.96312      0.60195  1.0000
  C           0.10269      0.80275      0.04291  1.0000
  C           0.61634      0.53550      0.25409  1.0000
  C           0.57390      0.80709      0.38833  1.0000
  C           0.02709      0.20990      0.60309  1.0000
  C           0.63959      0.63900      0.93235  1.0000
  C           0.58837      0.82230      0.85232  1.0000
