data_cif

_audit_creation_method             'generated by GULP'

_symmetry_space_group_name_H-M     'P 1'
_symmetry_Int_Tables_number        1
_symmetry_cell_setting             triclinic

_cell_length_a                        7.6468
_cell_length_b                        7.6468
_cell_length_c                        7.6468
_cell_angle_alpha                   90.0000
_cell_angle_beta                    90.0000
_cell_angle_gamma                   90.0000

loop_
_atom_site_label
_atom_site_fract_x
_atom_site_fract_y
_atom_site_fract_z
_atom_site_occupancy
  C           0.02510      0.58715      0.36532  1.0000
  C           0.26055      0.10202      0.10651  1.0000
  C           0.09997      0.43964      0.26699  1.0000
  C           0.87924      0.96731      0.45264  1.0000
  C           0.47798      0.91572      0.98906  1.0000
  C           0.78577      0.44844      0.22163  1.0000
  C           0.91925      0.63383      0.71776  1.0000
  C           0.81040      0.55103      0.58921  1.0000
  C           0.13272      0.38045      0.63988  1.0000
  C           0.40589      0.76340      0.11734  1.0000
  C           0.88823      0.25401      0.74583  1.0000
  C           0.57261      0.89535      0.55689  1.0000
  C           0.42531      0.24078      0.63191  1.0000
  C           0.20267      0.98189      0.79751  1.0000
  C           0.52157      0.60751      0.40592  1.0000
  C           0.98901      0.93715      0.11910  1.0000
  C           0.13913      0.82036      0.85828  1.0000
  C           0.35006      0.68804      0.66334  1.0000
  C           0.73726      0.38204      0.68305  1.0000
  C           0.04332      0.26034      0.26460  1.0000
  C           0.93608      0.17483      0.42005  1.0000
  C           0.84392      0.61426      0.41523  1.0000
  C           0.48121      0.81522      0.68903  1.0000
  C           0.79418      0.29906      0.32898  1.0000
  C           0.66820      0.15766      0.01448  1.0000
  C           0.52048      0.60371      0.08849  1.0000
  C           0.60504      0.28048      0.57080  1.0000
  C           0.63560      0.98697      0.11759  1.0000
  C           0.48134      0.91549      0.24935  1.0000
  C           0.34033      0.05541      0.92302  1.0000
  C           0.80898      0.11036      0.88201  1.0000
  C           0.86203      0.76278      0.83720  1.0000
  C           0.30776      0.39543      0.57767  1.0000
  C           0.22864      0.68708      0.12354  1.0000
  C           0.07124      0.51187      0.77886  1.0000
  C           0.32575      0.10332      0.50831  1.0000
  C           0.11860      0.74204      0.42405  1.0000
  C           0.54273      0.31351      0.95648  1.0000
  C           0.06194      0.13264      0.10788  1.0000
  C           0.76890      0.93952      0.79574  1.0000
  C           0.39302      0.55720      0.53471  1.0000
  C           0.06771      0.89761      0.49780  1.0000
  C           0.99803      0.42904      0.95413  1.0000
  C           0.24001      0.50141      0.15810  1.0000
  C           0.19884      0.67057      0.76933  1.0000
  C           0.88989      0.51868      0.08152  1.0000
  C           0.80212      0.86082      0.15367  1.0000
  C           0.98227      0.22265      0.94778  1.0000
  C           0.77638      0.80441      0.34907  1.0000
  C           0.81947      0.69854      0.02516  1.0000
  C           0.15932      0.04152      0.60718  1.0000
  C           0.47808      0.26334      0.27600  1.0000
  C           0.43516      0.40018      0.12317  1.0000
  C           0.36769      0.08639      0.29081  1.0000
  C           0.62442      0.26706      0.39205  1.0000
  C           0.42304      0.20947      0.83176  1.0000
  C           0.64375      0.45400      0.85000  1.0000
  C           0.73804      0.96325      0.60203  1.0000
  C           0.10273      0.80288      0.04298  1.0000
  C           0.61638      0.53564      0.25417  1.0000
  C           0.57394      0.80723      0.38841  1.0000
  C           0.02713      0.21002      0.60314  1.0000
  C           0.63962      0.63914      0.93243  1.0000
  C           0.58841      0.82245      0.85240  1.0000
