data_cif

_audit_creation_method             'generated by GULP'

_symmetry_space_group_name_H-M     'P 1'
_symmetry_Int_Tables_number        1
_symmetry_cell_setting             triclinic

_cell_length_a                        7.5579
_cell_length_b                        7.5579
_cell_length_c                        7.5579
_cell_angle_alpha                   90.0000
_cell_angle_beta                    90.0000
_cell_angle_gamma                   90.0000

loop_
_atom_site_label
_atom_site_fract_x
_atom_site_fract_y
_atom_site_fract_z
_atom_site_occupancy
  C           0.02510      0.58715      0.36532  1.0000
  C           0.26227      0.10229      0.10814  1.0000
  C           0.10017      0.43810      0.26794  1.0000
  C           0.87885      0.96659      0.45284  1.0000
  C           0.47680      0.91768      0.98856  1.0000
  C           0.78728      0.44673      0.21973  1.0000
  C           0.92377      0.63818      0.71684  1.0000
  C           0.81004      0.55520      0.59040  1.0000
  C           0.13155      0.37986      0.63829  1.0000
  C           0.40399      0.76467      0.11752  1.0000
  C           0.88996      0.25751      0.74675  1.0000
  C           0.56925      0.90169      0.55743  1.0000
  C           0.42568      0.24078      0.63249  1.0000
  C           0.19940      0.98399      0.79885  1.0000
  C           0.52339      0.60863      0.40682  1.0000
  C           0.98749      0.93824      0.12176  1.0000
  C           0.13375      0.82163      0.85820  1.0000
  C           0.34725      0.69042      0.66222  1.0000
  C           0.73833      0.38452      0.68344  1.0000
  C           0.04714      0.25752      0.26668  1.0000
  C           0.93603      0.17292      0.41976  1.0000
  C           0.84314      0.61612      0.41482  1.0000
  C           0.47784      0.81968      0.69003  1.0000
  C           0.79406      0.29611      0.32697  1.0000
  C           0.66958      0.16173      0.01795  1.0000
  C           0.52043      0.60476      0.08814  1.0000
  C           0.60627      0.28041      0.57148  1.0000
  C           0.63351      0.98998      0.11930  1.0000
  C           0.47865      0.91609      0.25161  1.0000
  C           0.33918      0.05686      0.92304  1.0000
  C           0.81044      0.11351      0.88456  1.0000
  C           0.86914      0.76838      0.83822  1.0000
  C           0.30739      0.39516      0.57526  1.0000
  C           0.22628      0.68680      0.12336  1.0000
  C           0.07168      0.50956      0.77936  1.0000
  C           0.32625      0.10172      0.50990  1.0000
  C           0.12270      0.74084      0.42380  1.0000
  C           0.54249      0.31513      0.95724  1.0000
  C           0.06371      0.13097      0.10950  1.0000
  C           0.76969      0.94265      0.79700  1.0000
  C           0.39270      0.55833      0.53399  1.0000
  C           0.06822      0.89619      0.49897  1.0000
  C           0.00250      0.42868      0.95494  1.0000
  C           0.23834      0.50025      0.15585  1.0000
  C           0.19495      0.67226      0.76783  1.0000
  C           0.89369      0.51996      0.08189  1.0000
  C           0.79951      0.86342      0.15577  1.0000
  C           0.98654      0.22176      0.94952  1.0000
  C           0.77539      0.80547      0.35034  1.0000
  C           0.82214      0.70080      0.02542  1.0000
  C           0.15885      0.04142      0.60814  1.0000
  C           0.47545      0.26367      0.27672  1.0000
  C           0.43411      0.39907      0.12282  1.0000
  C           0.36517      0.08653      0.29542  1.0000
  C           0.62404      0.26598      0.39152  1.0000
  C           0.42207      0.21168      0.83230  1.0000
  C           0.64378      0.45605      0.85034  1.0000
  C           0.73683      0.96864      0.60275  1.0000
  C           0.09848      0.80215      0.04376  1.0000
  C           0.61802      0.53607      0.25436  1.0000
  C           0.57274      0.80950      0.39028  1.0000
  C           0.02690      0.20798      0.60217  1.0000
  C           0.64118      0.64203      0.93210  1.0000
  C           0.58868      0.82508      0.85222  1.0000
