data_cif

_audit_creation_method             'generated by GULP'

_symmetry_space_group_name_H-M     'P 1'
_symmetry_Int_Tables_number        1
_symmetry_cell_setting             triclinic

_cell_length_a                        7.5578
_cell_length_b                        7.5578
_cell_length_c                        7.5578
_cell_angle_alpha                   90.0000
_cell_angle_beta                    90.0000
_cell_angle_gamma                   90.0000

loop_
_atom_site_label
_atom_site_fract_x
_atom_site_fract_y
_atom_site_fract_z
_atom_site_occupancy
  C           0.02510      0.58715      0.36532  1.0000
  C           0.26226      0.10229      0.10815  1.0000
  C           0.10017      0.43809      0.26794  1.0000
  C           0.87885      0.96659      0.45285  1.0000
  C           0.47678      0.91770      0.98856  1.0000
  C           0.78728      0.44674      0.21973  1.0000
  C           0.92380      0.63821      0.71683  1.0000
  C           0.81006      0.55523      0.59042  1.0000
  C           0.13155      0.37987      0.63829  1.0000
  C           0.40398      0.76468      0.11753  1.0000
  C           0.88997      0.25752      0.74677  1.0000
  C           0.56925      0.90171      0.55744  1.0000
  C           0.42569      0.24079      0.63251  1.0000
  C           0.19939      0.98400      0.79886  1.0000
  C           0.52339      0.60864      0.40682  1.0000
  C           0.98748      0.93824      0.12177  1.0000
  C           0.13372      0.82165      0.85820  1.0000
  C           0.34723      0.69045      0.66222  1.0000
  C           0.73833      0.38454      0.68346  1.0000
  C           0.04715      0.25751      0.26669  1.0000
  C           0.93602      0.17292      0.41977  1.0000
  C           0.84314      0.61612      0.41483  1.0000
  C           0.47783      0.81970      0.69003  1.0000
  C           0.79406      0.29612      0.32697  1.0000
  C           0.66958      0.16175      0.01796  1.0000
  C           0.52043      0.60477      0.08814  1.0000
  C           0.60628      0.28043      0.57150  1.0000
  C           0.63349      0.99000      0.11930  1.0000
  C           0.47864      0.91610      0.25162  1.0000
  C           0.33917      0.05688      0.92305  1.0000
  C           0.81044      0.11352      0.88457  1.0000
  C           0.86918      0.76842      0.83823  1.0000
  C           0.30739      0.39517      0.57527  1.0000
  C           0.22627      0.68680      0.12335  1.0000
  C           0.07168      0.50956      0.77938  1.0000
  C           0.32625      0.10174      0.50992  1.0000
  C           0.12271      0.74084      0.42380  1.0000
  C           0.54249      0.31515      0.95725  1.0000
  C           0.06371      0.13097      0.10952  1.0000
  C           0.76970      0.94266      0.79701  1.0000
  C           0.39269      0.55834      0.53399  1.0000
  C           0.06822      0.89619      0.49898  1.0000
  C           0.00250      0.42869      0.95495  1.0000
  C           0.23833      0.50025      0.15584  1.0000
  C           0.19493      0.67229      0.76782  1.0000
  C           0.89368      0.51998      0.08188  1.0000
  C           0.79949      0.86343      0.15578  1.0000
  C           0.98654      0.22176      0.94954  1.0000
  C           0.77538      0.80547      0.35034  1.0000
  C           0.82214      0.70082      0.02541  1.0000
  C           0.15885      0.04142      0.60814  1.0000
  C           0.47545      0.26369      0.27673  1.0000
  C           0.43411      0.39908      0.12282  1.0000
  C           0.36516      0.08655      0.29543  1.0000
  C           0.62404      0.26600      0.39153  1.0000
  C           0.42207      0.21170      0.83231  1.0000
  C           0.64378      0.45607      0.85035  1.0000
  C           0.73683      0.96865      0.60276  1.0000
  C           0.09847      0.80216      0.04376  1.0000
  C           0.61802      0.53608      0.25436  1.0000
  C           0.57273      0.80951      0.39029  1.0000
  C           0.02690      0.20798      0.60217  1.0000
  C           0.64117      0.64205      0.93211  1.0000
  C           0.58867      0.82510      0.85222  1.0000
