data_cif

_audit_creation_method             'generated by GULP'

_symmetry_space_group_name_H-M     'P 1'
_symmetry_Int_Tables_number        1
_symmetry_cell_setting             triclinic

_cell_length_a                        7.4887
_cell_length_b                        7.4887
_cell_length_c                        7.4887
_cell_angle_alpha                   90.0000
_cell_angle_beta                    90.0000
_cell_angle_gamma                   90.0000

loop_
_atom_site_label
_atom_site_fract_x
_atom_site_fract_y
_atom_site_fract_z
_atom_site_occupancy
  C           0.08286      0.54642      0.42047  1.0000
  C           0.29979      0.09872      0.15713  1.0000
  C           0.13589      0.39725      0.32134  1.0000
  C           0.90498      0.92588      0.49959  1.0000
  C           0.49574      0.88866      0.03220  1.0000
  C           0.81691      0.44148      0.28910  1.0000
  C           0.94548      0.60838      0.76066  1.0000
  C           0.83959      0.52009      0.62884  1.0000
  C           0.15213      0.34831      0.68744  1.0000
  C           0.41687      0.73347      0.16720  1.0000
  C           0.91252      0.22284      0.78869  1.0000
  C           0.59373      0.87537      0.59277  1.0000
  C           0.45027      0.21281      0.66610  1.0000
  C           0.22178      0.96029      0.85479  1.0000
  C           0.54475      0.57570      0.44682  1.0000
  C           0.01105      0.92387      0.16750  1.0000
  C           0.16949      0.79321      0.92127  1.0000
  C           0.32414      0.69266      0.65166  1.0000
  C           0.76226      0.34776      0.71217  1.0000
  C           0.06502      0.22591      0.31655  1.0000
  C           0.93837      0.13712      0.45232  1.0000
  C           0.88271      0.57341      0.43887  1.0000
  C           0.48275      0.80042      0.72060  1.0000
  C           0.79985      0.23529      0.30090  1.0000
  C           0.71964      0.15237      0.11099  1.0000
  C           0.52907      0.57097      0.12212  1.0000
  C           0.62365      0.26440      0.58151  1.0000
  C           0.66068      0.95846      0.15874  1.0000
  C           0.51003      0.87532      0.29627  1.0000
  C           0.36736      0.03507      0.97126  1.0000
  C           0.83757      0.08554      0.93965  1.0000
  C           0.88725      0.74225      0.87748  1.0000
  C           0.32934      0.36922      0.62367  1.0000
  C           0.23439      0.66621      0.23620  1.0000
  C           0.09744      0.48221      0.82717  1.0000
  C           0.35686      0.05916      0.56108  1.0000
  C           0.20541      0.70969      0.45826  1.0000
  C           0.57742      0.28389      0.99935  1.0000
  C           0.09567      0.11158      0.15417  1.0000
  C           0.78280      0.91700      0.84478  1.0000
  C           0.40603      0.52712      0.56072  1.0000
  C           0.09408      0.86510      0.54772  1.0000
  C           0.07202      0.41295      0.01658  1.0000
  C           0.23756      0.45524      0.15101  1.0000
  C           0.20399      0.65431      0.80711  1.0000
  C           0.91875      0.50494      0.12503  1.0000
  C           0.82723      0.83383      0.19305  1.0000
  C           0.01741      0.21313      0.99189  1.0000
  C           0.81234      0.76970      0.38854  1.0000
  C           0.83565      0.67429      0.06154  1.0000
  C           0.18437      0.00952      0.65852  1.0000
  C           0.45718      0.21703      0.27361  1.0000
  C           0.43066      0.37831      0.13307  1.0000
  C           0.38695      0.02812      0.35614  1.0000
  C           0.61981      0.24371      0.40035  1.0000
  C           0.46672      0.17470      0.86863  1.0000
  C           0.67063      0.42574      0.88407  1.0000
  C           0.75937      0.94398      0.64726  1.0000
  C           0.12962      0.78701      0.10500  1.0000
  C           0.61445      0.48795      0.29189  1.0000
  C           0.60905      0.77038      0.43179  1.0000
  C           0.04678      0.17080      0.63970  1.0000
  C           0.65430      0.61282      0.96831  1.0000
  C           0.59668      0.79633      0.88704  1.0000
