data_cif

_audit_creation_method             'generated by GULP'

_symmetry_space_group_name_H-M     'P 1'
_symmetry_Int_Tables_number        1
_symmetry_cell_setting             triclinic

_cell_length_a                        7.4797
_cell_length_b                        7.4797
_cell_length_c                        7.4797
_cell_angle_alpha                   90.0000
_cell_angle_beta                    90.0000
_cell_angle_gamma                   90.0000

loop_
_atom_site_label
_atom_site_fract_x
_atom_site_fract_y
_atom_site_fract_z
_atom_site_occupancy
  C           0.03578      0.52617      0.33989  1.0000
  C           0.23933      0.06165      0.07187  1.0000
  C           0.09008      0.37448      0.24246  1.0000
  C           0.85787      0.90959      0.41430  1.0000
  C           0.44479      0.86532      0.94873  1.0000
  C           0.78500      0.42684      0.21085  1.0000
  C           0.90488      0.58765      0.68084  1.0000
  C           0.79230      0.50308      0.55096  1.0000
  C           0.11248      0.33019      0.60375  1.0000
  C           0.36895      0.71226      0.08779  1.0000
  C           0.86613      0.20871      0.71059  1.0000
  C           0.54583      0.86032      0.51095  1.0000
  C           0.40266      0.18985      0.58782  1.0000
  C           0.17042      0.93357      0.77079  1.0000
  C           0.50289      0.56004      0.36629  1.0000
  C           0.95625      0.89872      0.08303  1.0000
  C           0.12038      0.76728      0.83958  1.0000
  C           0.28052      0.67126      0.57060  1.0000
  C           0.71437      0.33354      0.64044  1.0000
  C           0.02987      0.19771      0.23958  1.0000
  C           0.91277      0.11706      0.38791  1.0000
  C           0.83428      0.56343      0.36167  1.0000
  C           0.43743      0.78213      0.63882  1.0000
  C           0.77252      0.23938      0.28154  1.0000
  C           0.64695      0.11564      0.98270  1.0000
  C           0.48248      0.54934      0.04578  1.0000
  C           0.58325      0.22946      0.52302  1.0000
  C           0.60515      0.94034      0.07686  1.0000
  C           0.45652      0.86440      0.21365  1.0000
  C           0.31297      0.00998      0.88677  1.0000
  C           0.79087      0.06511      0.85029  1.0000
  C           0.84913      0.72298      0.79738  1.0000
  C           0.28839      0.34899      0.53866  1.0000
  C           0.18807      0.64453      0.15527  1.0000
  C           0.05666      0.45887      0.74629  1.0000
  C           0.30505      0.04514      0.47538  1.0000
  C           0.16031      0.68918      0.37775  1.0000
  C           0.51723      0.26224      0.91181  1.0000
  C           0.03820      0.08448      0.07311  1.0000
  C           0.74138      0.89364      0.75856  1.0000
  C           0.36489      0.50770      0.47861  1.0000
  C           0.04870      0.84767      0.46139  1.0000
  C           0.03049      0.38900      0.93661  1.0000
  C           0.19975      0.43111      0.07519  1.0000
  C           0.16414      0.62911      0.72820  1.0000
  C           0.87803      0.48608      0.04339  1.0000
  C           0.77228      0.81485      0.11026  1.0000
  C           0.96685      0.19020      0.91474  1.0000
  C           0.76194      0.75509      0.30664  1.0000
  C           0.78757      0.65272      0.97735  1.0000
  C           0.13578      0.99035      0.57713  1.0000
  C           0.44379      0.21290      0.22857  1.0000
  C           0.39877      0.34275      0.06797  1.0000
  C           0.33915      0.03142      0.26271  1.0000
  C           0.59798      0.21663      0.33984  1.0000
  C           0.40021      0.15708      0.78749  1.0000
  C           0.61480      0.40561      0.80515  1.0000
  C           0.71397      0.92334      0.56314  1.0000
  C           0.07650      0.76124      0.02355  1.0000
  C           0.57922      0.47350      0.21345  1.0000
  C           0.55797      0.75780      0.34874  1.0000
  C           0.00488      0.15818      0.56887  1.0000
  C           0.60489      0.59051      0.89009  1.0000
  C           0.55180      0.77540      0.80527  1.0000
