data_cif

_audit_creation_method             'generated by GULP'

_symmetry_space_group_name_H-M     'P 1'
_symmetry_Int_Tables_number        1
_symmetry_cell_setting             triclinic

_cell_length_a                        7.5962
_cell_length_b                        7.5962
_cell_length_c                        7.5962
_cell_angle_alpha                   90.0000
_cell_angle_beta                    90.0000
_cell_angle_gamma                   90.0000

loop_
_atom_site_label
_atom_site_fract_x
_atom_site_fract_y
_atom_site_fract_z
_atom_site_occupancy
  C           0.02510      0.58715      0.36532  1.0000
  C           0.26155      0.10240      0.10751  1.0000
  C           0.10000      0.43893      0.26742  1.0000
  C           0.87910      0.96711      0.45275  1.0000
  C           0.47725      0.91699      0.98896  1.0000
  C           0.78661      0.44770      0.22068  1.0000
  C           0.92197      0.63656      0.71733  1.0000
  C           0.81030      0.55363      0.59004  1.0000
  C           0.13210      0.38028      0.63923  1.0000
  C           0.40472      0.76434      0.11768  1.0000
  C           0.88932      0.25623      0.74642  1.0000
  C           0.57082      0.89910      0.55734  1.0000
  C           0.42558      0.24098      0.63234  1.0000
  C           0.20087      0.98332      0.79826  1.0000
  C           0.52260      0.60837      0.40663  1.0000
  C           0.98808      0.93808      0.12065  1.0000
  C           0.13602      0.82136      0.85825  1.0000
  C           0.34846      0.68963      0.66284  1.0000
  C           0.73797      0.38369      0.68339  1.0000
  C           0.04549      0.25891      0.26579  1.0000
  C           0.93613      0.17392      0.41995  1.0000
  C           0.84351      0.61551      0.41513  1.0000
  C           0.47935      0.81794      0.68969  1.0000
  C           0.79419      0.29767      0.32803  1.0000
  C           0.66918      0.16005      0.01647  1.0000
  C           0.52028      0.60448      0.08857  1.0000
  C           0.60579      0.28069      0.57134  1.0000
  C           0.63444      0.98886      0.11862  1.0000
  C           0.47987      0.91606      0.25082  1.0000
  C           0.33969      0.05641      0.92311  1.0000
  C           0.81000      0.11234      0.88351  1.0000
  C           0.86623      0.76619      0.83790  1.0000
  C           0.30758      0.39550      0.57652  1.0000
  C           0.22717      0.68726      0.12350  1.0000
  C           0.07151      0.51071      0.77937  1.0000
  C           0.32609      0.10268      0.50917  1.0000
  C           0.12093      0.74145      0.42387  1.0000
  C           0.54279      0.31438      0.95692  1.0000
  C           0.06300      0.13190      0.10889  1.0000
  C           0.76958      0.94152      0.79653  1.0000
  C           0.39284      0.55806      0.53447  1.0000
  C           0.06811      0.89698      0.49841  1.0000
  C           0.00058      0.42904      0.95470  1.0000
  C           0.23880      0.50111      0.15666  1.0000
  C           0.19664      0.67177      0.76861  1.0000
  C           0.89195      0.51959      0.08177  1.0000
  C           0.80064      0.86247      0.15491  1.0000
  C           0.98481      0.22236      0.94885  1.0000
  C           0.77589      0.80520      0.34985  1.0000
  C           0.82083      0.70000      0.02531  1.0000
  C           0.15913      0.04166      0.60770  1.0000
  C           0.47680      0.26366      0.27650  1.0000
  C           0.43524      0.39928      0.12281  1.0000
  C           0.36633      0.08672      0.29353  1.0000
  C           0.62430      0.26665      0.39192  1.0000
  C           0.42258      0.21085      0.83213  1.0000
  C           0.64385      0.45526      0.85030  1.0000
  C           0.73749      0.96643      0.60252  1.0000
  C           0.10027      0.80282      0.04344  1.0000
  C           0.61731      0.53612      0.25449  1.0000
  C           0.57334      0.80871      0.38959  1.0000
  C           0.02710      0.20901      0.60260  1.0000
  C           0.64029      0.64079      0.93247  1.0000
  C           0.58844      0.82403      0.85250  1.0000
