data_cif

_audit_creation_method             'generated by GULP'

_symmetry_space_group_name_H-M     'P 1'
_symmetry_Int_Tables_number        1
_symmetry_cell_setting             triclinic

_cell_length_a                        7.5267
_cell_length_b                        7.5267
_cell_length_c                        7.5267
_cell_angle_alpha                   90.0000
_cell_angle_beta                    90.0000
_cell_angle_gamma                   90.0000

loop_
_atom_site_label
_atom_site_fract_x
_atom_site_fract_y
_atom_site_fract_z
_atom_site_occupancy
  C           0.08286      0.54642      0.42047  1.0000
  C           0.30142      0.09806      0.15936  1.0000
  C           0.13478      0.39738      0.32150  1.0000
  C           0.90625      0.92584      0.50188  1.0000
  C           0.49754      0.88779      0.03475  1.0000
  C           0.81663      0.44088      0.29182  1.0000
  C           0.94619      0.60696      0.76336  1.0000
  C           0.84134      0.51881      0.63120  1.0000
  C           0.15396      0.34788      0.69063  1.0000
  C           0.41811      0.73310      0.16943  1.0000
  C           0.91357      0.22165      0.79102  1.0000
  C           0.59598      0.87197      0.59549  1.0000
  C           0.45132      0.21277      0.66819  1.0000
  C           0.22452      0.95927      0.85637  1.0000
  C           0.54487      0.57557      0.44842  1.0000
  C           0.01308      0.92261      0.16881  1.0000
  C           0.17178      0.79281      0.92279  1.0000
  C           0.32391      0.69186      0.65233  1.0000
  C           0.76327      0.34697      0.71454  1.0000
  C           0.06480      0.22611      0.31694  1.0000
  C           0.93992      0.13729      0.45385  1.0000
  C           0.88340      0.57273      0.44131  1.0000
  C           0.48433      0.79764      0.72259  1.0000
  C           0.80075      0.23484      0.30420  1.0000
  C           0.72119      0.15123      0.11329  1.0000
  C           0.53008      0.57081      0.12461  1.0000
  C           0.62437      0.26397      0.58358  1.0000
  C           0.66267      0.95729      0.16063  1.0000
  C           0.51167      0.87495      0.29763  1.0000
  C           0.36931      0.03418      0.97345  1.0000
  C           0.83880      0.08420      0.94129  1.0000
  C           0.88671      0.73989      0.87990  1.0000
  C           0.33075      0.36916      0.62682  1.0000
  C           0.23570      0.66546      0.23861  1.0000
  C           0.09837      0.48179      0.82972  1.0000
  C           0.35792      0.05971      0.56241  1.0000
  C           0.20583      0.70886      0.45954  1.0000
  C           0.57842      0.28324      0.00138  1.0000
  C           0.09705      0.11089      0.15583  1.0000
  C           0.78398      0.91529      0.84703  1.0000
  C           0.40684      0.52654      0.56269  1.0000
  C           0.09559      0.86524      0.54907  1.0000
  C           0.07250      0.41245      0.01919  1.0000
  C           0.23922      0.45556      0.15332  1.0000
  C           0.20340      0.65447      0.80789  1.0000
  C           0.91899      0.50385      0.12791  1.0000
  C           0.82922      0.83274      0.19495  1.0000
  C           0.01766      0.21244      0.99353  1.0000
  C           0.81326      0.76927      0.39058  1.0000
  C           0.83641      0.67289      0.06412  1.0000
  C           0.18605      0.00921      0.66011  1.0000
  C           0.45826      0.21643      0.27475  1.0000
  C           0.43248      0.37836      0.13577  1.0000
  C           0.38889      0.02787      0.35727  1.0000
  C           0.62058      0.24304      0.40283  1.0000
  C           0.46808      0.17400      0.87091  1.0000
  C           0.67167      0.42497      0.88651  1.0000
  C           0.76093      0.94057      0.64967  1.0000
  C           0.13226      0.78674      0.10634  1.0000
  C           0.61491      0.48823      0.29401  1.0000
  C           0.60982      0.76995      0.43338  1.0000
  C           0.04824      0.17074      0.64225  1.0000
  C           0.65516      0.61175      0.97115  1.0000
  C           0.59761      0.79487      0.88954  1.0000
