data_cif

_audit_creation_method             'generated by GULP'

_symmetry_space_group_name_H-M     'P 1'
_symmetry_Int_Tables_number        1
_symmetry_cell_setting             triclinic

_cell_length_a                        7.5963
_cell_length_b                        7.5963
_cell_length_c                        7.5963
_cell_angle_alpha                   90.0000
_cell_angle_beta                    90.0000
_cell_angle_gamma                   90.0000

loop_
_atom_site_label
_atom_site_fract_x
_atom_site_fract_y
_atom_site_fract_z
_atom_site_occupancy
  C           0.02510      0.58715      0.36532  1.0000
  C           0.26154      0.10240      0.10751  1.0000
  C           0.10000      0.43893      0.26742  1.0000
  C           0.87910      0.96711      0.45276  1.0000
  C           0.47724      0.91700      0.98897  1.0000
  C           0.78660      0.44771      0.22068  1.0000
  C           0.92199      0.63658      0.71733  1.0000
  C           0.81032      0.55365      0.59005  1.0000
  C           0.13211      0.38028      0.63924  1.0000
  C           0.40471      0.76435      0.11769  1.0000
  C           0.88932      0.25624      0.74643  1.0000
  C           0.57082      0.89911      0.55734  1.0000
  C           0.42558      0.24099      0.63235  1.0000
  C           0.20087      0.98333      0.79826  1.0000
  C           0.52260      0.60838      0.40663  1.0000
  C           0.98807      0.93809      0.12065  1.0000
  C           0.13602      0.82138      0.85825  1.0000
  C           0.34845      0.68964      0.66284  1.0000
  C           0.73797      0.38370      0.68340  1.0000
  C           0.04549      0.25891      0.26579  1.0000
  C           0.93612      0.17392      0.41996  1.0000
  C           0.84351      0.61551      0.41514  1.0000
  C           0.47935      0.81795      0.68970  1.0000
  C           0.79418      0.29768      0.32804  1.0000
  C           0.66918      0.16006      0.01647  1.0000
  C           0.52028      0.60449      0.08857  1.0000
  C           0.60580      0.28070      0.57135  1.0000
  C           0.63443      0.98887      0.11862  1.0000
  C           0.47986      0.91607      0.25082  1.0000
  C           0.33969      0.05642      0.92312  1.0000
  C           0.81000      0.11234      0.88351  1.0000
  C           0.86626      0.76621      0.83791  1.0000
  C           0.30758      0.39551      0.57653  1.0000
  C           0.22716      0.68727      0.12350  1.0000
  C           0.07152      0.51071      0.77938  1.0000
  C           0.32610      0.10269      0.50918  1.0000
  C           0.12092      0.74145      0.42386  1.0000
  C           0.54279      0.31439      0.95693  1.0000
  C           0.06299      0.13190      0.10889  1.0000
  C           0.76958      0.94153      0.79654  1.0000
  C           0.39283      0.55807      0.53447  1.0000
  C           0.06811      0.89698      0.49841  1.0000
  C           0.00058      0.42905      0.95471  1.0000
  C           0.23879      0.50111      0.15666  1.0000
  C           0.19663      0.67178      0.76861  1.0000
  C           0.89194      0.51959      0.08177  1.0000
  C           0.80063      0.86247      0.15491  1.0000
  C           0.98481      0.22236      0.94886  1.0000
  C           0.77589      0.80520      0.34985  1.0000
  C           0.82083      0.70001      0.02530  1.0000
  C           0.15913      0.04167      0.60771  1.0000
  C           0.47680      0.26367      0.27651  1.0000
  C           0.43524      0.39929      0.12282  1.0000
  C           0.36633      0.08674      0.29354  1.0000
  C           0.62430      0.26666      0.39193  1.0000
  C           0.42258      0.21086      0.83213  1.0000
  C           0.64385      0.45528      0.85031  1.0000
  C           0.73749      0.96643      0.60253  1.0000
  C           0.10026      0.80283      0.04343  1.0000
  C           0.61731      0.53614      0.25449  1.0000
  C           0.57333      0.80871      0.38960  1.0000
  C           0.02710      0.20902      0.60260  1.0000
  C           0.64028      0.64080      0.93248  1.0000
  C           0.58843      0.82404      0.85250  1.0000
