data_cif

_audit_creation_method             'generated by GULP'

_symmetry_space_group_name_H-M     'P 1'
_symmetry_Int_Tables_number        1
_symmetry_cell_setting             triclinic

_cell_length_a                        7.5748
_cell_length_b                        7.5748
_cell_length_c                        7.5748
_cell_angle_alpha                   90.0000
_cell_angle_beta                    90.0000
_cell_angle_gamma                   90.0000

loop_
_atom_site_label
_atom_site_fract_x
_atom_site_fract_y
_atom_site_fract_z
_atom_site_occupancy
  C           0.03578      0.52617      0.33989  1.0000
  C           0.23971      0.05711      0.07431  1.0000
  C           0.08663      0.37434      0.24302  1.0000
  C           0.86034      0.90849      0.41920  1.0000
  C           0.44763      0.86192      0.95318  1.0000
  C           0.78290      0.42666      0.21877  1.0000
  C           0.90559      0.58348      0.68730  1.0000
  C           0.79610      0.49934      0.55646  1.0000
  C           0.11599      0.32848      0.61154  1.0000
  C           0.37097      0.71009      0.09162  1.0000
  C           0.86825      0.20413      0.71499  1.0000
  C           0.55011      0.85147      0.51534  1.0000
  C           0.40494      0.18971      0.59337  1.0000
  C           0.17594      0.93074      0.77267  1.0000
  C           0.50151      0.55875      0.36880  1.0000
  C           0.95981      0.89546      0.08570  1.0000
  C           0.12426      0.76623      0.84166  1.0000
  C           0.27910      0.66874      0.57116  1.0000
  C           0.71685      0.33083      0.64643  1.0000
  C           0.02624      0.19835      0.24056  1.0000
  C           0.91545      0.11634      0.39284  1.0000
  C           0.83641      0.56156      0.36755  1.0000
  C           0.44077      0.77454      0.64190  1.0000
  C           0.77436      0.24089      0.29089  1.0000
  C           0.64875      0.10966      0.98383  1.0000
  C           0.48369      0.54750      0.05026  1.0000
  C           0.58465      0.22923      0.52955  1.0000
  C           0.60901      0.93562      0.07912  1.0000
  C           0.46024      0.86270      0.21502  1.0000
  C           0.31604      0.00674      0.89050  1.0000
  C           0.79236      0.06011      0.85230  1.0000
  C           0.84615      0.71630      0.80256  1.0000
  C           0.29092      0.34843      0.54643  1.0000
  C           0.19040      0.64204      0.16011  1.0000
  C           0.05797      0.45738      0.75229  1.0000
  C           0.30759      0.04737      0.47793  1.0000
  C           0.16107      0.68717      0.37970  1.0000
  C           0.52023      0.25850      0.91661  1.0000
  C           0.03969      0.08268      0.07694  1.0000
  C           0.74168      0.88753      0.76238  1.0000
  C           0.36562      0.50564      0.48250  1.0000
  C           0.05219      0.84802      0.46324  1.0000
  C           0.03039      0.38694      0.94270  1.0000
  C           0.20201      0.43099      0.08066  1.0000
  C           0.16176      0.62895      0.72895  1.0000
  C           0.87709      0.48235      0.05074  1.0000
  C           0.77656      0.81116      0.11412  1.0000
  C           0.96622      0.18719      0.91784  1.0000
  C           0.76391      0.75339      0.31095  1.0000
  C           0.78845      0.64840      0.98340  1.0000
  C           0.13954      0.98959      0.57919  1.0000
  C           0.45011      0.21166      0.23480  1.0000
  C           0.40379      0.34004      0.07375  1.0000
  C           0.34409      0.03142      0.26209  1.0000
  C           0.60089      0.21567      0.34812  1.0000
  C           0.40292      0.15429      0.79257  1.0000
  C           0.61793      0.40205      0.81132  1.0000
  C           0.71658      0.91387      0.56753  1.0000
  C           0.08177      0.76057      0.02553  1.0000
  C           0.57903      0.47320      0.21742  1.0000
  C           0.55931      0.75535      0.35095  1.0000
  C           0.00801      0.15797      0.57373  1.0000
  C           0.60631      0.58695      0.89571  1.0000
  C           0.55361      0.77138      0.80957  1.0000
