data_cif

_audit_creation_method             'generated by GULP'

_symmetry_space_group_name_H-M     'P 1'
_symmetry_Int_Tables_number        1
_symmetry_cell_setting             triclinic

_cell_length_a                        7.5370
_cell_length_b                        7.5370
_cell_length_c                        7.5370
_cell_angle_alpha                   90.0000
_cell_angle_beta                    90.0000
_cell_angle_gamma                   90.0000

loop_
_atom_site_label
_atom_site_fract_x
_atom_site_fract_y
_atom_site_fract_z
_atom_site_occupancy
  C           0.03578      0.52617      0.33989  1.0000
  C           0.23980      0.05847      0.07350  1.0000
  C           0.08802      0.37435      0.24286  1.0000
  C           0.85947      0.90884      0.41746  1.0000
  C           0.44675      0.86299      0.95159  1.0000
  C           0.78389      0.42653      0.21595  1.0000
  C           0.90539      0.58481      0.68499  1.0000
  C           0.79472      0.50051      0.55451  1.0000
  C           0.11477      0.32888      0.60871  1.0000
  C           0.37043      0.71077      0.09032  1.0000
  C           0.86763      0.20554      0.71351  1.0000
  C           0.54855      0.85462      0.51388  1.0000
  C           0.40422      0.18951      0.59143  1.0000
  C           0.17401      0.93157      0.77204  1.0000
  C           0.50215      0.55910      0.36799  1.0000
  C           0.95861      0.89656      0.08486  1.0000
  C           0.12290      0.76639      0.84101  1.0000
  C           0.27980      0.66944      0.57113  1.0000
  C           0.71608      0.33157      0.64435  1.0000
  C           0.02783      0.19800      0.24028  1.0000
  C           0.91466      0.11644      0.39109  1.0000
  C           0.83561      0.56218      0.36554  1.0000
  C           0.43959      0.77712      0.64091  1.0000
  C           0.77383      0.24017      0.28759  1.0000
  C           0.64823      0.11170      0.98355  1.0000
  C           0.48339      0.54800      0.04872  1.0000
  C           0.58429      0.22903      0.52731  1.0000
  C           0.60773      0.93720      0.07844  1.0000
  C           0.45899      0.86319      0.21465  1.0000
  C           0.31505      0.00771      0.88917  1.0000
  C           0.79182      0.06158      0.85157  1.0000
  C           0.84736      0.71858      0.80076  1.0000
  C           0.29008      0.34839      0.54361  1.0000
  C           0.18977      0.64299      0.15842  1.0000
  C           0.05754      0.45770      0.75012  1.0000
  C           0.30679      0.04628      0.47704  1.0000
  C           0.16088      0.68786      0.37914  1.0000
  C           0.51926      0.25968      0.91497  1.0000
  C           0.03943      0.08320      0.07566  1.0000
  C           0.74167      0.88957      0.76104  1.0000
  C           0.36544      0.50618      0.48112  1.0000
  C           0.05095      0.84777      0.46260  1.0000
  C           0.03047      0.38748      0.94043  1.0000
  C           0.20185      0.43096      0.07889  1.0000
  C           0.16280      0.62874      0.72881  1.0000
  C           0.87769      0.48355      0.04817  1.0000
  C           0.77510      0.81239      0.11285  1.0000
  C           0.96689      0.18823      0.91683  1.0000
  C           0.76322      0.75390      0.30952  1.0000
  C           0.78831      0.64982      0.98134  1.0000
  C           0.13827      0.98967      0.57852  1.0000
  C           0.44792      0.21193      0.23266  1.0000
  C           0.40214      0.34078      0.07177  1.0000
  C           0.34238      0.03125      0.26255  1.0000
  C           0.59998      0.21580      0.34521  1.0000
  C           0.40202      0.15514      0.79080  1.0000
  C           0.61695      0.40315      0.80918  1.0000
  C           0.71568      0.91721      0.56602  1.0000
  C           0.07991      0.76064      0.02494  1.0000
  C           0.57931      0.47320      0.21609  1.0000
  C           0.55886      0.75617      0.35027  1.0000
  C           0.00700      0.15779      0.57202  1.0000
  C           0.60596      0.58806      0.89372  1.0000
  C           0.55301      0.77260      0.80808  1.0000
