data_cif

_audit_creation_method             'generated by GULP'

_symmetry_space_group_name_H-M     'P 1'
_symmetry_Int_Tables_number        1
_symmetry_cell_setting             triclinic

_cell_length_a                        7.6122
_cell_length_b                        7.6122
_cell_length_c                        7.6122
_cell_angle_alpha                   90.0000
_cell_angle_beta                    90.0000
_cell_angle_gamma                   90.0000

loop_
_atom_site_label
_atom_site_fract_x
_atom_site_fract_y
_atom_site_fract_z
_atom_site_occupancy
  C           0.03578      0.52617      0.33989  1.0000
  C           0.23981      0.05563      0.07513  1.0000
  C           0.08540      0.37426      0.24327  1.0000
  C           0.86133      0.90794      0.42085  1.0000
  C           0.44864      0.86060      0.95467  1.0000
  C           0.78218      0.42656      0.22143  1.0000
  C           0.90597      0.58194      0.68953  1.0000
  C           0.79761      0.49797      0.55834  1.0000
  C           0.11744      0.32793      0.61431  1.0000
  C           0.37169      0.70913      0.09284  1.0000
  C           0.86903      0.20263      0.71645  1.0000
  C           0.55177      0.84831      0.51664  1.0000
  C           0.40585      0.18968      0.59522  1.0000
  C           0.17795      0.92977      0.77329  1.0000
  C           0.50116      0.55813      0.36963  1.0000
  C           0.96109      0.89420      0.08642  1.0000
  C           0.12569      0.76590      0.84216  1.0000
  C           0.27846      0.66790      0.57096  1.0000
  C           0.71773      0.32989      0.64840  1.0000
  C           0.02490      0.19854      0.24094  1.0000
  C           0.91634      0.11613      0.39455  1.0000
  C           0.83725      0.56078      0.36947  1.0000
  C           0.44206      0.77192      0.64273  1.0000
  C           0.77504      0.24134      0.29394  1.0000
  C           0.64942      0.10746      0.98408  1.0000
  C           0.48421      0.54675      0.05175  1.0000
  C           0.58520      0.22919      0.53162  1.0000
  C           0.61037      0.93386      0.07969  1.0000
  C           0.46162      0.86194      0.21532  1.0000
  C           0.31715      0.00557      0.89178  1.0000
  C           0.79313      0.05856      0.85304  1.0000
  C           0.84514      0.71388      0.80424  1.0000
  C           0.29200      0.34829      0.54922  1.0000
  C           0.19114      0.64095      0.16155  1.0000
  C           0.05867      0.45691      0.75440  1.0000
  C           0.30858      0.04818      0.47891  1.0000
  C           0.16134      0.68639      0.38001  1.0000
  C           0.52133      0.25716      0.91818  1.0000
  C           0.04009      0.08203      0.07821  1.0000
  C           0.74184      0.88535      0.76361  1.0000
  C           0.36609      0.50491      0.48391  1.0000
  C           0.05354      0.84814      0.46384  1.0000
  C           0.03081      0.38641      0.94512  1.0000
  C           0.20188      0.43084      0.08220  1.0000
  C           0.16088      0.62903      0.72896  1.0000
  C           0.87671      0.48105      0.05320  1.0000
  C           0.77809      0.80976      0.11528  1.0000
  C           0.96573      0.18607      0.91880  1.0000
  C           0.76472      0.75270      0.31230  1.0000
  C           0.78877      0.64684      0.98534  1.0000
  C           0.14093      0.98937      0.57984  1.0000
  C           0.45233      0.21112      0.23679  1.0000
  C           0.40545      0.33919      0.07561  1.0000
  C           0.34594      0.03127      0.26155  1.0000
  C           0.60191      0.21535      0.35082  1.0000
  C           0.40402      0.15319      0.79426  1.0000
  C           0.61901      0.40077      0.81334  1.0000
  C           0.71759      0.91054      0.56892  1.0000
  C           0.08361      0.76029      0.02595  1.0000
  C           0.57893      0.47288      0.21873  1.0000
  C           0.55994      0.75429      0.35157  1.0000
  C           0.00916      0.15802      0.57544  1.0000
  C           0.60685      0.58562      0.89761  1.0000
  C           0.55439      0.76998      0.81092  1.0000
