data_image0
_cell_length_a       14.7864
_cell_length_b       14.7864
_cell_length_c       14.7864
_cell_angle_alpha    90
_cell_angle_beta     90
_cell_angle_gamma    90

_symmetry_space_group_name_H-M    "P 1"
_symmetry_int_tables_number       1

loop_
  _symmetry_equiv_pos_as_xyz
  'x, y, z'

loop_
  _atom_site_label
  _atom_site_occupancy
  _atom_site_fract_x
  _atom_site_fract_y
  _atom_site_fract_z
  _atom_site_thermal_displace_type
  _atom_site_B_iso_or_equiv
  _atom_site_type_symbol
  O1       1.0000 0.30875  0.39686  0.17429  Biso   1.000  O
  O2       1.0000 0.92436  0.01468  0.69893  Biso   1.000  O
  O3       1.0000 0.82333  0.27970  0.21394  Biso   1.000  O
  C1       1.0000 0.33583  0.53653  0.05387  Biso   1.000  C
  O4       1.0000 0.69594  0.97199  0.88690  Biso   1.000  O
  O5       1.0000 0.27106  0.30853  0.50660  Biso   1.000  O
  O6       1.0000 0.10867  0.99012  0.31819  Biso   1.000  O
  C2       1.0000 0.22384  0.96579  0.02630  Biso   1.000  C
  O7       1.0000 0.87033  0.21600  0.87567  Biso   1.000  O
  O8       1.0000 0.08213  0.90130  0.13033  Biso   1.000  O
  O9       1.0000 0.07517  0.60342  0.95194  Biso   1.000  O
  O10      1.0000 0.40241  0.28256  0.81112  Biso   1.000  O
  C3       1.0000 0.52245  0.09084  0.11682  Biso   1.000  C
  O11      1.0000 0.04294  0.48891  0.82124  Biso   1.000  O
  C4       1.0000 0.08211  0.14716  0.41082  Biso   1.000  C
  O12      1.0000 0.07180  0.55358  0.65977  Biso   1.000  O
  C5       1.0000 0.88497  0.13525  0.40879  Biso   1.000  C
  O13      1.0000 0.83269  0.45919  0.97792  Biso   1.000  O
  C6       1.0000 0.60431  0.34112  0.14584  Biso   1.000  C
  C7       1.0000 0.69011  0.87825  0.31365  Biso   1.000  C
  O14      1.0000 0.93018  0.81397  0.30721  Biso   1.000  O
  O15      1.0000 0.84383  0.49082  0.59050  Biso   1.000  O
  O16      1.0000 0.53126  0.76616  0.03376  Biso   1.000  O
  O17      1.0000 0.65428  0.78581  0.74507  Biso   1.000  O
  O18      1.0000 0.81301  0.04489  0.27555  Biso   1.000  O
  O19      1.0000 0.26728  0.03872  0.46450  Biso   1.000  O
  O20      1.0000 0.86691  0.86807  0.53348  Biso   1.000  O
  O21      1.0000 0.36368  0.51608  0.66294  Biso   1.000  O
  O22      1.0000 0.44223  0.80339  0.89689  Biso   1.000  O
  O23      1.0000 0.18755  0.01527  0.77504  Biso   1.000  O
  O24      1.0000 0.86680  0.15669  0.96838  Biso   1.000  O
  O25      1.0000 0.76699  0.73970  0.38080  Biso   1.000  O
  O26      1.0000 0.99525  0.04351  0.61962  Biso   1.000  O
  O27      1.0000 0.01936  0.17439  0.81972  Biso   1.000  O
  O28      1.0000 0.80600  0.59045  0.75124  Biso   1.000  O
  O29      1.0000 0.94250  0.07418  0.13343  Biso   1.000  O
  O30      1.0000 0.21323  0.08682  0.64099  Biso   1.000  O
  O31      1.0000 0.77010  0.84213  0.86315  Biso   1.000  O
  O32      1.0000 0.53935  0.93573  0.16328  Biso   1.000  O
  O33      1.0000 0.54481  0.08856  0.81627  Biso   1.000  O
  O34      1.0000 0.58886  0.01519  0.88969  Biso   1.000  O
  C8       1.0000 0.10737  0.10904  0.20680  Biso   1.000  C
  O35      1.0000 0.27065  0.64973  0.29641  Biso   1.000  O
  O36      1.0000 0.61225  0.47154  0.46442  Biso   1.000  O
  N1       1.0000 0.13490  0.19343  0.47332  Biso   1.000  N
  O37      1.0000 0.60191  0.30382  0.32446  Biso   1.000  O
  O38      1.0000 0.97063  0.37095  0.28470  Biso   1.000  O
  O39      1.0000 0.44220  0.48036  0.42141  Biso   1.000  O
  O40      1.0000 0.78550  0.75164  0.06402  Biso   1.000  O
  O41      1.0000 0.59270  0.45880  0.60373  Biso   1.000  O
  O42      1.0000 0.09605  0.87008  0.88279  Biso   1.000  O
  O43      1.0000 0.69080  0.35557  0.32906  Biso   1.000  O
  O44      1.0000 0.70268  0.69233  0.31064  Biso   1.000  O
  O45      1.0000 0.19667  0.90411  0.61998  Biso   1.000  O
  C9       1.0000 0.71670  0.42313  0.83699  Biso   1.000  C
  C10      1.0000 0.14215  0.45199  0.21120  Biso   1.000  C
  C11      1.0000 0.11110  0.43181  0.97765  Biso   1.000  C
  O46      1.0000 0.48878  0.61251  0.50401  Biso   1.000  O
  C12      1.0000 0.75629  0.45770  0.20251  Biso   1.000  C
  C13      1.0000 0.22636  0.18753  0.36248  Biso   1.000  C
  O47      1.0000 0.15901  0.19723  0.17484  Biso   1.000  O
  C14      1.0000 0.25515  0.97212  0.18686  Biso   1.000  C
  O48      1.0000 0.53274  0.54025  0.44026  Biso   1.000  O
  O49      1.0000 0.75847  0.28910  0.38939  Biso   1.000  O
  O50      1.0000 0.85112  0.52980  0.83029  Biso   1.000  O
  C15      1.0000 0.27332  0.30530  0.20954  Biso   1.000  C
  O51      1.0000 0.06974  0.97610  0.63798  Biso   1.000  O
  O52      1.0000 0.37704  0.38779  0.79565  Biso   1.000  O
  O53      1.0000 0.27663  0.09684  0.38049  Biso   1.000  O
  O54      1.0000 0.55202  0.20040  0.19506  Biso   1.000  O
  O55      1.0000 0.25853  0.57817  0.90862  Biso   1.000  O
  O56      1.0000 0.30524  0.17150  0.90817  Biso   1.000  O
  O57      1.0000 0.37078  0.91446  0.00840  Biso   1.000  O
  O58      1.0000 0.39720  0.52886  0.89000  Biso   1.000  O
  C16      1.0000 0.86311  0.06774  0.62743  Biso   1.000  C
  O59      1.0000 0.92840  0.49396  0.99331  Biso   1.000  O
  O60      1.0000 0.63163  0.55754  0.89035  Biso   1.000  O
  O61      1.0000 0.99617  0.79030  0.01519  Biso   1.000  O
  C17      1.0000 0.55741  0.72706  0.62209  Biso   1.000  C
  O62      1.0000 0.75933  0.21811  0.74215  Biso   1.000  O
  O63      1.0000 0.17985  0.39765  0.05846  Biso   1.000  O
  O64      1.0000 0.58833  0.47504  0.92987  Biso   1.000  O
  O65      1.0000 0.70048  0.89536  0.13095  Biso   1.000  O
  O66      1.0000 0.56266  0.70908  0.24167  Biso   1.000  O
  O67      1.0000 0.91473  0.58427  0.89475  Biso   1.000  O
  O68      1.0000 0.88871  0.31096  0.68276  Biso   1.000  O
  C18      1.0000 0.46152  0.52517  0.23007  Biso   1.000  C
  O69      1.0000 0.18298  0.91534  0.31888  Biso   1.000  O
  O70      1.0000 0.82157  0.74933  0.22093  Biso   1.000  O
  O71      1.0000 0.82394  0.36647  0.02522  Biso   1.000  O
  O72      1.0000 0.76659  0.39287  0.11236  Biso   1.000  O
  O73      1.0000 0.46149  0.73457  0.96766  Biso   1.000  O
  C19      1.0000 0.61709  0.70133  0.02233  Biso   1.000  C
  C20      1.0000 0.48943  0.60519  0.11780  Biso   1.000  C
  O74      1.0000 0.37627  0.89360  0.60877  Biso   1.000  O
  O75      1.0000 0.49406  0.07567  0.98540  Biso   1.000  O
  C21      1.0000 0.17561  0.81006  0.02642  Biso   1.000  C
  O76      1.0000 0.76624  0.46105  0.52911  Biso   1.000  O
  O77      1.0000 0.39542  0.18103  0.27998  Biso   1.000  O
  C22      1.0000 0.20189  0.92217  0.47918  Biso   1.000  C
  O78      1.0000 0.39694  0.13595  0.67245  Biso   1.000  O
  O79      1.0000 0.77724  0.09365  0.99470  Biso   1.000  O
  O80      1.0000 0.48178  0.13433  0.89442  Biso   1.000  O
  C23      1.0000 0.59318  0.93549  0.75025  Biso   1.000  C
  O81      1.0000 0.76329  0.35973  0.54987  Biso   1.000  O
  O82      1.0000 0.16070  0.00610  0.59122  Biso   1.000  O
  O83      1.0000 0.74894  0.56616  0.08682  Biso   1.000  O
  O84      1.0000 0.53916  0.33331  0.40549  Biso   1.000  O
  O85      1.0000 0.92010  0.77799  0.84552  Biso   1.000  O
  O86      1.0000 0.04559  0.90792  0.79954  Biso   1.000  O
  C24      1.0000 0.16759  0.74636  0.60850  Biso   1.000  C
  O87      1.0000 0.95369  0.95905  0.82249  Biso   1.000  O
  O88      1.0000 0.37744  0.09319  0.33896  Biso   1.000  O
  O89      1.0000 0.16637  0.71839  0.77902  Biso   1.000  O
  O90      1.0000 0.86612  0.60536  0.66886  Biso   1.000  O
  C25      1.0000 0.84022  0.21044  0.37526  Biso   1.000  C
  C26      1.0000 0.11992  0.57748  0.48820  Biso   1.000  C
  O91      1.0000 0.08694  0.80960  0.41593  Biso   1.000  O
  O92      1.0000 0.29694  0.53018  0.15126  Biso   1.000  O
  O93      1.0000 0.92703  0.36158  0.77158  Biso   1.000  O
  O94      1.0000 0.85770  0.97138  0.53330  Biso   1.000  O
  O95      1.0000 0.51924  0.24017  0.92282  Biso   1.000  O
  O96      1.0000 0.48922  0.70731  0.45809  Biso   1.000  O
  O97      1.0000 0.45142  0.79534  0.70264  Biso   1.000  O
  O98      1.0000 0.81679  0.19781  0.13328  Biso   1.000  O
  C27      1.0000 0.58506  0.91556  0.60176  Biso   1.000  C
  O99      1.0000 0.33422  0.67667  0.74745  Biso   1.000  O
  O100     1.0000 0.67461  0.31840  0.51917  Biso   1.000  O
  O101     1.0000 0.21530  0.30242  0.29223  Biso   1.000  O
  C28      1.0000 0.64805  0.72018  0.65954  Biso   1.000  C
  C29      1.0000 0.38596  0.69994  0.02765  Biso   1.000  C
  O102     1.0000 0.70741  0.45849  0.73701  Biso   1.000  O
  O103     1.0000 0.00739  0.89704  0.20069  Biso   1.000  O
  O104     1.0000 0.86728  0.86590  0.86452  Biso   1.000  O
  O105     1.0000 0.87559  0.07466  0.77949  Biso   1.000  O
  C30      1.0000 0.20290  0.58419  0.67109  Biso   1.000  C
  O106     1.0000 0.97536  0.16781  0.08777  Biso   1.000  O
  O107     1.0000 0.45922  0.97152  0.01292  Biso   1.000  O
  O108     1.0000 0.18457  0.82114  0.26068  Biso   1.000  O
  O109     1.0000 0.53855  0.41981  0.85581  Biso   1.000  O
  O110     1.0000 0.47233  0.00062  0.11733  Biso   1.000  O
  O111     1.0000 0.15604  0.61451  0.79939  Biso   1.000  O
  O112     1.0000 0.69028  0.94690  0.78102  Biso   1.000  O
  O113     1.0000 0.50077  0.15235  0.27330  Biso   1.000  O
  O114     1.0000 0.26301  0.21899  0.15786  Biso   1.000  O
  O115     1.0000 0.01262  0.29600  0.54345  Biso   1.000  O
  O116     1.0000 0.19420  0.61410  0.34986  Biso   1.000  O
  O117     1.0000 0.25920  0.07156  0.27770  Biso   1.000  O
  O118     1.0000 0.08914  0.27819  0.17010  Biso   1.000  O
  O119     1.0000 0.51453  0.53503  0.58557  Biso   1.000  O
  O120     1.0000 0.01875  0.62875  0.31263  Biso   1.000  O
  O121     1.0000 0.02880  0.57550  0.11576  Biso   1.000  O
  O122     1.0000 0.71133  0.87779  0.95096  Biso   1.000  O
  C31      1.0000 0.57740  0.58662  0.35704  Biso   1.000  C
  O123     1.0000 0.36055  0.75015  0.29355  Biso   1.000  O
  O124     1.0000 0.65261  0.72500  0.89411  Biso   1.000  O
  O125     1.0000 0.42321  0.14089  0.04026  Biso   1.000  O
  C32      1.0000 0.87489  0.34437  0.42736  Biso   1.000  C
  O126     1.0000 0.25486  0.75659  0.30528  Biso   1.000  O
  C33      1.0000 0.65160  0.91005  0.53033  Biso   1.000  C
  C34      1.0000 0.14608  0.29014  0.85230  Biso   1.000  C
  O127     1.0000 0.58013  0.37639  0.49168  Biso   1.000  O
  C35      1.0000 0.75190  0.75173  0.91078  Biso   1.000  C
  O128     1.0000 0.01292  0.86435  0.45754  Biso   1.000  O
  O129     1.0000 0.88951  0.71831  0.43274  Biso   1.000  O
  O130     1.0000 0.35966  0.61901  0.34693  Biso   1.000  O
  O131     1.0000 0.31365  0.00680  0.99791  Biso   1.000  O
  O132     1.0000 0.37881  0.26023  0.34749  Biso   1.000  O
  O133     1.0000 0.50788  0.95252  0.91035  Biso   1.000  O
  O134     1.0000 0.07483  0.27430  0.00193  Biso   1.000  O
  O135     1.0000 0.70494  0.56834  0.72429  Biso   1.000  O
  O136     1.0000 0.22060  0.44897  0.14096  Biso   1.000  O
  O137     1.0000 0.70085  0.31736  0.14697  Biso   1.000  O
  C36      1.0000 0.75464  0.84566  0.37930  Biso   1.000  C
  O138     1.0000 0.94816  0.02660  0.52420  Biso   1.000  O
  O139     1.0000 0.10608  0.67625  0.34358  Biso   1.000  O
  O140     1.0000 0.39434  0.06967  0.59393  Biso   1.000  O
  O141     1.0000 0.48179  0.85665  0.16981  Biso   1.000  O
  N2       1.0000 0.80224  0.29740  0.95939  Biso   1.000  N
  C37      1.0000 0.75114  0.61086  0.99205  Biso   1.000  C
  C38      1.0000 0.26472  0.75421  0.76298  Biso   1.000  C
  O142     1.0000 0.69337  0.53481  0.22855  Biso   1.000  O
  O143     1.0000 0.97551  0.83598  0.76224  Biso   1.000  O
  O144     1.0000 0.40069  0.96046  0.86793  Biso   1.000  O
  O145     1.0000 0.01720  0.79999  0.24947  Biso   1.000  O
  O146     1.0000 0.38876  0.99147  0.18113  Biso   1.000  O
  O147     1.0000 0.99334  0.47917  0.66255  Biso   1.000  O
  C39      1.0000 0.28530  0.37437  0.65537  Biso   1.000  C
  C40      1.0000 0.99588  0.16699  0.25613  Biso   1.000  C
  O148     1.0000 0.62012  0.83460  0.04095  Biso   1.000  O
  O149     1.0000 0.13815  0.01698  0.01409  Biso   1.000  O
  O150     1.0000 0.03296  0.64217  0.50526  Biso   1.000  O
  O151     1.0000 0.66958  0.45365  0.37261  Biso   1.000  O
  O152     1.0000 0.30300  0.39655  0.94437  Biso   1.000  O
  O153     1.0000 0.77115  0.99093  0.72890  Biso   1.000  O
  O154     1.0000 0.55765  0.00860  0.64119  Biso   1.000  O
  O155     1.0000 0.84135  0.09297  0.17416  Biso   1.000  O
  O156     1.0000 0.61913  0.81861  0.93282  Biso   1.000  O
  C41      1.0000 0.44114  0.60084  0.27898  Biso   1.000  C
  O157     1.0000 0.99515  0.63022  0.20403  Biso   1.000  O
  O158     1.0000 0.23875  0.36962  0.41720  Biso   1.000  O
  O159     1.0000 0.35863  0.71538  0.57447  Biso   1.000  O
  O160     1.0000 0.47490  0.36688  0.22783  Biso   1.000  O
  O161     1.0000 0.98237  0.32250  0.96139  Biso   1.000  O
  C42      1.0000 0.65927  0.02765  0.22907  Biso   1.000  C
  O162     1.0000 0.86876  0.76462  0.72121  Biso   1.000  O
  O163     1.0000 0.48371  0.19021  0.65994  Biso   1.000  O
  O164     1.0000 0.79245  0.35468  0.65219  Biso   1.000  O
  O165     1.0000 0.85393  0.82774  0.43464  Biso   1.000  O
  O166     1.0000 0.61468  0.50719  0.29578  Biso   1.000  O
  O167     1.0000 0.91542  0.86670  0.13862  Biso   1.000  O
  O168     1.0000 0.32624  0.08840  0.05688  Biso   1.000  O
  O169     1.0000 0.41280  0.60152  0.04841  Biso   1.000  O
  C43      1.0000 0.22987  0.66347  0.96447  Biso   1.000  C
  C44      1.0000 0.19398  0.91131  0.89402  Biso   1.000  C
  O170     1.0000 0.93619  0.91768  0.92574  Biso   1.000  O
  O171     1.0000 0.23225  0.87808  0.07716  Biso   1.000  O
  O172     1.0000 0.17107  0.41671  0.72105  Biso   1.000  O
  O173     1.0000 0.05773  0.20725  0.32688  Biso   1.000  O
  O174     1.0000 0.88732  0.21108  0.05413  Biso   1.000  O
  O175     1.0000 0.51939  0.23335  0.44086  Biso   1.000  O
  O176     1.0000 0.51579  0.00775  0.74447  Biso   1.000  O
  O177     1.0000 0.71275  0.27340  0.92839  Biso   1.000  O
  O178     1.0000 0.95343  0.29451  0.86111  Biso   1.000  O
  C45      1.0000 0.42485  0.95707  0.76613  Biso   1.000  C
  O179     1.0000 0.54684  0.13595  0.59898  Biso   1.000  O
  O180     1.0000 0.65427  0.17026  0.18852  Biso   1.000  O
  O181     1.0000 0.31293  0.50451  0.95936  Biso   1.000  O
  O182     1.0000 0.31767  0.02944  0.89643  Biso   1.000  O
  C46      1.0000 0.28948  0.84140  0.74461  Biso   1.000  C
  C47      1.0000 0.69790  0.82464  0.52748  Biso   1.000  C
  C48      1.0000 0.65981  0.03834  0.39645  Biso   1.000  C
  O183     1.0000 0.83480  0.71004  0.80738  Biso   1.000  O
  O184     1.0000 0.78188  0.48456  0.88937  Biso   1.000  O
  O185     1.0000 0.64987  0.68858  0.79061  Biso   1.000  O
  O186     1.0000 0.70215  0.14482  0.84922  Biso   1.000  O
  O187     1.0000 0.04686  0.47962  0.16690  Biso   1.000  O
  C49      1.0000 0.35174  0.98969  0.62861  Biso   1.000  C
  O188     1.0000 0.70128  0.22921  0.46201  Biso   1.000  O
  O189     1.0000 0.94402  0.70397  0.33832  Biso   1.000  O
  O190     1.0000 0.43610  0.43360  0.86787  Biso   1.000  O
  O191     1.0000 0.61756  0.55516  0.78762  Biso   1.000  O
  O192     1.0000 0.27977  0.86318  0.57119  Biso   1.000  O
  O193     1.0000 0.30206  0.56566  0.48657  Biso   1.000  O
  O194     1.0000 0.50175  0.40119  0.57224  Biso   1.000  O
  O195     1.0000 0.64616  0.21274  0.36171  Biso   1.000  O
  O196     1.0000 0.38299  0.67660  0.22692  Biso   1.000  O
  O197     1.0000 0.12559  0.76046  0.86961  Biso   1.000  O
  O198     1.0000 0.78680  0.83026  0.59039  Biso   1.000  O
  O199     1.0000 0.94121  0.76989  0.10108  Biso   1.000  O
  O200     1.0000 0.77171  0.22834  0.84757  Biso   1.000  O
  O201     1.0000 0.20385  0.23226  0.54190  Biso   1.000  O
  O202     1.0000 0.78203  0.00099  0.61482  Biso   1.000  O
  O203     1.0000 0.25708  0.40376  0.55862  Biso   1.000  O
  O204     1.0000 0.00350  0.53104  0.91438  Biso   1.000  O
  O205     1.0000 0.90865  0.30973  0.04121  Biso   1.000  O
  O206     1.0000 0.13174  0.37503  0.40479  Biso   1.000  O
  O207     1.0000 0.67314  0.07605  0.13747  Biso   1.000  O
  O208     1.0000 0.87604  0.70229  0.63502  Biso   1.000  O
  O209     1.0000 0.76572  0.08695  0.77198  Biso   1.000  O
  O210     1.0000 0.02234  0.40415  0.10377  Biso   1.000  O
  O211     1.0000 0.97936  0.47925  0.24712  Biso   1.000  O
  O212     1.0000 0.56527  0.83719  0.77370  Biso   1.000  O
  O213     1.0000 0.94354  0.55638  0.71906  Biso   1.000  O
  O214     1.0000 0.96312  0.73309  0.93330  Biso   1.000  O
  O215     1.0000 0.03663  0.12833  0.91364  Biso   1.000  O
  O216     1.0000 0.02553  0.88798  0.96258  Biso   1.000  O
  O217     1.0000 0.30922  0.93635  0.48797  Biso   1.000  O
  O218     1.0000 0.24389  0.54842  0.80092  Biso   1.000  O
  O219     1.0000 0.47796  0.91999  0.45777  Biso   1.000  O
  O220     1.0000 0.71264  0.55845  0.39803  Biso   1.000  O
  O221     1.0000 0.88894  0.03369  0.87598  Biso   1.000  O
  O222     1.0000 0.47414  0.27329  0.72931  Biso   1.000  O
  C50      1.0000 0.68127  0.59662  0.56000  Biso   1.000  C
  O223     1.0000 0.15359  0.26274  0.63021  Biso   1.000  O
  O224     1.0000 0.15900  0.48986  0.64759  Biso   1.000  O
  O225     1.0000 0.85094  0.59903  0.12945  Biso   1.000  O
  C51      1.0000 0.79823  0.39749  0.38980  Biso   1.000  C
  O226     1.0000 0.55297  0.15976  0.36776  Biso   1.000  O
  O227     1.0000 0.41107  0.37376  0.95748  Biso   1.000  O
  O228     1.0000 0.79547  0.00905  0.93160  Biso   1.000  O
  C52      1.0000 0.05557  0.69593  0.91114  Biso   1.000  C
  C53      1.0000 0.50339  0.04596  0.28046  Biso   1.000  C
  C54      1.0000 0.10054  0.15900  0.75266  Biso   1.000  C
  O229     1.0000 0.24905  0.15460  0.04033  Biso   1.000  O
  C55      1.0000 0.60220  0.28770  0.59050  Biso   1.000  C
  C56      1.0000 0.27211  0.00327  0.67057  Biso   1.000  C
  O230     1.0000 0.27405  0.96200  0.29415  Biso   1.000  O
  C57      1.0000 0.59992  0.91017  0.32951  Biso   1.000  C
  O231     1.0000 0.00417  0.06813  0.21554  Biso   1.000  O
  C58      1.0000 0.94322  0.34751  0.12848  Biso   1.000  C
  O232     1.0000 0.57353  0.97743  0.25285  Biso   1.000  O
  O233     1.0000 0.40875  0.10859  0.44161  Biso   1.000  O
  O234     1.0000 0.28841  0.62676  0.19100  Biso   1.000  O
  O235     1.0000 0.85902  0.21324  0.70010  Biso   1.000  O
  O236     1.0000 0.10240  0.70623  0.45085  Biso   1.000  O
  O237     1.0000 0.21102  0.01125  0.87333  Biso   1.000  O
  O238     1.0000 0.41677  0.39723  0.13342  Biso   1.000  O
  O239     1.0000 0.38535  0.87492  0.71362  Biso   1.000  O
  O240     1.0000 0.56939  0.35416  0.04960  Biso   1.000  O
  O241     1.0000 0.80206  0.69738  0.98116  Biso   1.000  O
  O242     1.0000 0.71874  0.74822  0.22071  Biso   1.000  O
  O243     1.0000 0.09248  0.34305  0.60134  Biso   1.000  O
  O244     1.0000 0.36222  0.21157  0.98749  Biso   1.000  O
  O245     1.0000 0.52314  0.82846  0.62261  Biso   1.000  O
  C59      1.0000 0.19259  0.64810  0.05499  Biso   1.000  C
  O246     1.0000 0.76086  0.85673  0.04665  Biso   1.000  O
  O247     1.0000 0.39438  0.84275  0.27012  Biso   1.000  O
  O248     1.0000 0.71375  0.22209  0.11080  Biso   1.000  O
  O249     1.0000 0.04994  0.65063  0.61226  Biso   1.000  O
  O250     1.0000 0.65736  0.58737  0.14420  Biso   1.000  O
  O251     1.0000 0.00986  0.97933  0.26883  Biso   1.000  O
  O252     1.0000 0.93418  0.87927  0.38668  Biso   1.000  O
  O253     1.0000 0.36629  0.92201  0.32700  Biso   1.000  O
  O254     1.0000 0.74512  0.35546  0.24006  Biso   1.000  O
  O255     1.0000 0.34711  0.52542  0.39921  Biso   1.000  O
  O256     1.0000 0.45220  0.85831  0.54870  Biso   1.000  O
  O257     1.0000 0.04298  0.35439  0.45467  Biso   1.000  O
  O258     1.0000 0.78915  0.49002  0.43192  Biso   1.000  O
  O259     1.0000 0.86189  0.03962  0.36669  Biso   1.000  O
  O260     1.0000 0.70189  0.16922  0.28603  Biso   1.000  O
  O261     1.0000 0.20382  0.16783  0.94237  Biso   1.000  O
  O262     1.0000 0.33132  0.85248  0.08624  Biso   1.000  O
  O263     1.0000 0.61127  0.92930  0.09031  Biso   1.000  O
  O264     1.0000 0.74565  0.64894  0.82429  Biso   1.000  O
  O265     1.0000 0.76724  0.06451  0.09782  Biso   1.000  O
  O266     1.0000 0.16109  0.01938  0.48744  Biso   1.000  O
  O267     1.0000 0.21145  0.71990  0.48006  Biso   1.000  O
  O268     1.0000 0.40307  0.35011  0.30718  Biso   1.000  O
  C60      1.0000 0.32224  0.74684  0.07931  Biso   1.000  C
  C61      1.0000 0.68382  0.63312  0.64709  Biso   1.000  C
  C62      1.0000 0.56479  0.55350  0.09636  Biso   1.000  C
  O269     1.0000 0.49087  0.03102  0.46476  Biso   1.000  O
  O270     1.0000 0.70965  0.06686  0.56466  Biso   1.000  O
  O271     1.0000 0.95482  0.48974  0.40359  Biso   1.000  O
  C63      1.0000 0.55505  0.21872  0.53957  Biso   1.000  C
  O272     1.0000 0.25103  0.78321  0.40667  Biso   1.000  O
  O273     1.0000 0.96950  0.82997  0.55269  Biso   1.000  O
  O274     1.0000 0.90029  0.65716  0.97275  Biso   1.000  O
  O275     1.0000 0.70057  0.64000  0.47037  Biso   1.000  O
  C64      1.0000 0.66235  0.74826  0.47696  Biso   1.000  C
  O276     1.0000 0.94176  0.44263  0.58313  Biso   1.000  O
  O277     1.0000 0.47787  0.40429  0.35777  Biso   1.000  O
  C65      1.0000 0.26706  0.18566  0.74206  Biso   1.000  C
  O278     1.0000 0.96568  0.02447  0.04157  Biso   1.000  O
  O279     1.0000 0.21247  0.31337  0.69957  Biso   1.000  O
  O280     1.0000 0.15084  0.42695  0.56314  Biso   1.000  O
  O281     1.0000 0.68392  0.75446  0.09019  Biso   1.000  O
  O282     1.0000 0.44976  0.35251  0.64929  Biso   1.000  O
  O283     1.0000 0.94469  0.97866  0.35298  Biso   1.000  O
  C66      1.0000 0.10452  0.60864  0.05176  Biso   1.000  C
  O284     1.0000 0.31690  0.20018  0.65533  Biso   1.000  O
  C67      1.0000 0.36804  0.26857  0.51652  Biso   1.000  C
  O285     1.0000 0.16388  0.26768  0.94805  Biso   1.000  O
  O286     1.0000 0.57362  0.75666  0.41785  Biso   1.000  O
  C68      1.0000 0.72411  0.30225  0.70238  Biso   1.000  C
  O287     1.0000 0.73310  0.84978  0.76416  Biso   1.000  O
  C69      1.0000 0.56905  0.06696  0.40678  Biso   1.000  C
  O288     1.0000 0.37445  0.41235  0.69543  Biso   1.000  O
  O289     1.0000 0.48888  0.05511  0.56465  Biso   1.000  O
  C70      1.0000 0.55042  0.86514  0.39953  Biso   1.000  C
  O290     1.0000 0.80990  0.84790  0.69235  Biso   1.000  O
  O291     1.0000 0.97414  0.73452  0.59824  Biso   1.000  O
  C71      1.0000 0.85407  0.32025  0.51684  Biso   1.000  C
  O292     1.0000 0.64438  0.68882  0.16972  Biso   1.000  O
  O293     1.0000 0.32834  0.48570  0.55860  Biso   1.000  O
  O294     1.0000 0.60506  0.03535  0.07300  Biso   1.000  O
  O295     1.0000 0.14309  0.67000  0.67689  Biso   1.000  O
  O296     1.0000 0.26249  0.15710  0.58010  Biso   1.000  O
  O297     1.0000 0.73379  0.46558  0.03813  Biso   1.000  O
  O298     1.0000 0.84815  0.59190  0.30982  Biso   1.000  O
  O299     1.0000 0.15063  0.56462  0.89651  Biso   1.000  O
  O300     1.0000 0.13139  0.46175  0.88168  Biso   1.000  O
  C72      1.0000 0.25936  0.84845  0.91031  Biso   1.000  C
  O301     1.0000 0.14019  0.37868  0.29053  Biso   1.000  O
  C73      1.0000 0.08631  0.19202  0.66408  Biso   1.000  C
  C74      1.0000 0.25286  0.68920  0.11869  Biso   1.000  C
  O302     1.0000 0.29807  0.57953  0.71823  Biso   1.000  O
  O303     1.0000 0.05392  0.28084  0.80476  Biso   1.000  O
  O304     1.0000 0.02210  0.52569  0.33436  Biso   1.000  O
  O305     1.0000 0.95905  0.37998  0.38893  Biso   1.000  O
  O306     1.0000 0.83766  0.70033  0.30928  Biso   1.000  O
  O307     1.0000 0.26539  0.75650  0.56602  Biso   1.000  O
  O308     1.0000 0.88384  0.96991  0.99459  Biso   1.000  O
  O309     1.0000 0.31500  0.05694  0.15231  Biso   1.000  O
  O310     1.0000 0.40291  0.25841  0.61536  Biso   1.000  O
  O311     1.0000 0.36301  0.86598  0.91388  Biso   1.000  O
  O312     1.0000 0.73919  0.59570  0.30323  Biso   1.000  O
  O313     1.0000 0.24065  0.33473  0.00132  Biso   1.000  O
  O314     1.0000 0.69940  0.99454  0.48106  Biso   1.000  O
  O315     1.0000 0.05468  0.17220  0.01885  Biso   1.000  O
  C75      1.0000 0.12525  0.83207  0.61278  Biso   1.000  C
  O316     1.0000 0.47816  0.76766  0.80099  Biso   1.000  O
  O317     1.0000 0.06997  0.57492  0.76327  Biso   1.000  O
  C76      1.0000 0.80200  0.99517  0.44709  Biso   1.000  C
  O318     1.0000 0.92681  0.62622  0.47882  Biso   1.000  O
  O319     1.0000 0.00879  0.42261  0.00016  Biso   1.000  O
  O320     1.0000 0.09737  0.33466  0.08706  Biso   1.000  O
  C77      1.0000 0.19156  0.51362  0.33728  Biso   1.000  C
  O321     1.0000 0.41358  0.60853  0.63630  Biso   1.000  O
  O322     1.0000 0.34998  0.79872  0.42745  Biso   1.000  O
  O323     1.0000 0.43402  0.47422  0.52911  Biso   1.000  O
  O324     1.0000 0.47681  0.68329  0.17855  Biso   1.000  O
  C78      1.0000 0.93925  0.12963  0.48522  Biso   1.000  C
  O325     1.0000 0.42006  0.27510  0.92460  Biso   1.000  O
  O326     1.0000 0.20919  0.45060  0.80871  Biso   1.000  O
  O327     1.0000 0.93093  0.58318  0.05580  Biso   1.000  O
  O328     1.0000 0.60874  0.07136  0.97592  Biso   1.000  O
  C79      1.0000 0.69823  0.84713  0.22196  Biso   1.000  C
  O329     1.0000 0.66687  0.22066  0.01113  Biso   1.000  O
  O330     1.0000 0.98198  0.74068  0.70891  Biso   1.000  O
  O331     1.0000 0.28121  0.27607  0.37590  Biso   1.000  O
  O332     1.0000 0.90299  0.56314  0.22571  Biso   1.000  O
  O333     1.0000 0.52751  0.45771  0.27047  Biso   1.000  O
  C80      1.0000 0.02669  0.14457  0.61172  Biso   1.000  C
  O334     1.0000 0.14200  0.08459  0.92253  Biso   1.000  O
  C81      1.0000 0.14231  0.11977  0.05234  Biso   1.000  C
  O335     1.0000 0.32975  0.10560  0.51783  Biso   1.000  O
  C82      1.0000 0.75770  0.16237  0.53675  Biso   1.000  C
  C83      1.0000 0.81985  0.95042  0.22497  Biso   1.000  C
  O336     1.0000 0.46097  0.56773  0.96182  Biso   1.000  O
  O337     1.0000 0.56859  0.31360  0.85852  Biso   1.000  O
  O338     1.0000 0.00365  0.97871  0.44628  Biso   1.000  O
  C84      1.0000 0.15961  0.05959  0.26068  Biso   1.000  C
  C85      1.0000 0.09945  0.96615  0.73774  Biso   1.000  C
  O339     1.0000 0.28277  0.38609  0.84141  Biso   1.000  O
  C86      1.0000 0.49697  0.79210  0.25626  Biso   1.000  C
  O340     1.0000 0.41646  0.77071  0.50822  Biso   1.000  O
  O341     1.0000 0.52582  0.49534  0.01363  Biso   1.000  O
  O342     1.0000 0.31070  0.23095  0.82274  Biso   1.000  O
  C87      1.0000 0.57661  0.46320  0.77123  Biso   1.000  C
  O343     1.0000 0.62594  0.31427  0.68791  Biso   1.000  O
  O344     1.0000 0.60112  0.64393  0.93555  Biso   1.000  O
  O345     1.0000 0.87504  0.55136  0.40759  Biso   1.000  O
  O346     1.0000 0.57292  0.26607  0.76598  Biso   1.000  O
  C88      1.0000 0.91743  0.64654  0.81611  Biso   1.000  C
  C89      1.0000 0.83686  0.15892  0.61011  Biso   1.000  C
  O347     1.0000 0.68341  0.13720  0.71596  Biso   1.000  O
  O348     1.0000 0.60070  0.68611  0.33583  Biso   1.000  O
  O349     1.0000 0.60808  0.16601  0.78660  Biso   1.000  O
  O350     1.0000 0.71247  0.06737  0.30741  Biso   1.000  O
  O351     1.0000 0.51058  0.19397  0.09099  Biso   1.000  O
  O352     1.0000 0.55493  0.30111  0.22853  Biso   1.000  O
  C90      1.0000 0.99697  0.72876  0.17909  Biso   1.000  C
  O353     1.0000 0.63880  0.09020  0.63524  Biso   1.000  O
  C91      1.0000 0.91097  0.33104  0.20973  Biso   1.000  C
  O354     1.0000 0.05525  0.96153  0.03846  Biso   1.000  O
  O355     1.0000 0.50220  0.65107  0.91980  Biso   1.000  O
  O356     1.0000 0.38270  0.11009  0.85645  Biso   1.000  O
  O357     1.0000 0.31313  0.14340  0.21351  Biso   1.000  O
  O358     1.0000 0.22531  0.91990  0.72302  Biso   1.000  O
  O359     1.0000 0.38027  0.61888  0.53222  Biso   1.000  O
  O360     1.0000 0.99600  0.45301  0.49585  Biso   1.000  O
  C92      1.0000 0.49047  0.76757  0.12354  Biso   1.000  C
  O361     1.0000 0.05899  0.30993  0.27316  Biso   1.000  O
  O362     1.0000 0.62100  0.41670  0.69045  Biso   1.000  O
  O363     1.0000 0.64453  0.41199  0.99445  Biso   1.000  O
  O364     1.0000 0.40618  0.71144  0.38793  Biso   1.000  O
  C93      1.0000 0.09075  0.81916  0.05763  Biso   1.000  C
  O365     1.0000 0.28813  0.25617  0.05406  Biso   1.000  O
  O366     1.0000 0.84601  0.94270  0.78161  Biso   1.000  O
  C94      1.0000 0.39836  0.49634  0.16714  Biso   1.000  C
  O367     1.0000 0.37786  0.89966  0.42396  Biso   1.000  O
  O368     1.0000 0.99638  0.65021  0.75179  Biso   1.000  O
  O369     1.0000 0.40622  0.00879  0.28482  Biso   1.000  O
  O370     1.0000 0.56476  0.24925  0.01850  Biso   1.000  O
  C95      1.0000 0.39078  0.60911  0.81674  Biso   1.000  C
  O371     1.0000 0.73112  0.57381  0.90268  Biso   1.000  O
  O372     1.0000 0.53835  0.85581  0.88263  Biso   1.000  O
  O373     1.0000 0.85264  0.71189  0.13145  Biso   1.000  O
  O374     1.0000 0.88502  0.46379  0.75420  Biso   1.000  O
  O375     1.0000 0.27722  0.45640  0.35880  Biso   1.000  O
  O376     1.0000 0.68725  0.13203  0.95641  Biso   1.000  O
  O377     1.0000 0.92709  0.33820  0.58680  Biso   1.000  O
  C96      1.0000 0.79447  0.21036  0.28570  Biso   1.000  C
  O378     1.0000 0.08240  0.34611  0.71632  Biso   1.000  O
  O379     1.0000 0.46951  0.40064  0.04202  Biso   1.000  O
  O380     1.0000 0.20962  0.75880  0.93781  Biso   1.000  O
  O381     1.0000 0.10627  0.47873  0.37470  Biso   1.000  O
  C97      1.0000 0.99151  0.19069  0.53683  Biso   1.000  C
  O382     1.0000 0.55641  0.63340  0.75416  Biso   1.000  O
  O383     1.0000 0.48309  0.66487  0.81753  Biso   1.000  O
  N3       1.0000 0.38838  0.10182  0.76110  Biso   1.000  N
  O384     1.0000 0.91770  0.17073  0.78593  Biso   1.000  O
  O385     1.0000 0.37881  0.88574  0.16975  Biso   1.000  O
  O386     1.0000 0.18285  0.89072  0.17226  Biso   1.000  O
  O387     1.0000 0.09798  0.78104  0.30490  Biso   1.000  O
  O388     1.0000 0.66078  0.35751  0.89894  Biso   1.000  O
  C98      1.0000 0.00245  0.21838  0.17313  Biso   1.000  C
  O389     1.0000 0.01225  0.41941  0.74721  Biso   1.000  O
  O390     1.0000 0.52071  0.62873  0.65266  Biso   1.000  O
  O391     1.0000 0.67341  0.49843  0.54721  Biso   1.000  O
  C99      1.0000 0.80258  0.72947  0.57244  Biso   1.000  C
  O392     1.0000 0.19074  0.11382  0.74319  Biso   1.000  O
  O393     1.0000 0.85242  0.91256  0.06992  Biso   1.000  O
  O394     1.0000 0.78229  0.96244  0.12812  Biso   1.000  O
  O395     1.0000 0.86172  0.84910  0.23358  Biso   1.000  O
  O396     1.0000 0.41725  0.22061  0.43922  Biso   1.000  O
  O397     1.0000 0.21312  0.61562  0.45869  Biso   1.000  O
  O398     1.0000 0.10124  0.47535  0.48960  Biso   1.000  O
  O399     1.0000 0.78884  0.70117  0.47779  Biso   1.000  O
  O400     1.0000 0.91193  0.90031  0.70763  Biso   1.000  O
  C100     1.0000 0.32308  0.40804  0.28057  Biso   1.000  C
  O401     1.0000 0.15491  0.20996  0.28630  Biso   1.000  O
  O402     1.0000 0.94691  0.08410  0.95104  Biso   1.000  O
  O403     1.0000 0.80599  0.45400  0.68616  Biso   1.000  O
  O404     1.0000 0.39791  0.71329  0.67344  Biso   1.000  O
  O405     1.0000 0.17984  0.85886  0.40671  Biso   1.000  O
  C101     1.0000 0.04311  0.88059  0.60624  Biso   1.000  C
  O406     1.0000 0.23130  0.30135  0.80189  Biso   1.000  O
  C102     1.0000 0.87284  0.58951  0.56110  Biso   1.000  C
  O407     1.0000 0.08907  0.03761  0.41746  Biso   1.000  O
