data_cif

_audit_creation_method             'generated by GULP'

_symmetry_space_group_name_H-M     'P 1'
_symmetry_Int_Tables_number        1
_symmetry_cell_setting             triclinic

_cell_length_a                       14.7864
_cell_length_b                       14.7864
_cell_length_c                       14.7864
_cell_angle_alpha                   90.0000
_cell_angle_beta                    90.0000
_cell_angle_gamma                   90.0000

loop_
_atom_site_label
_atom_site_fract_x
_atom_site_fract_y
_atom_site_fract_z
_atom_site_occupancy
  C           0.30875      0.39686      0.17429  1.0000
  C           0.92436      0.01468      0.69893  1.0000
  C           0.82333      0.27970      0.21394  1.0000
  C           0.33583      0.53653      0.05387  1.0000
  C           0.69594      0.97199      0.88690  1.0000
  C           0.27106      0.30853      0.50660  1.0000
  C           0.10867      0.99012      0.31819  1.0000
  C           0.22384      0.96579      0.02630  1.0000
  C           0.87033      0.21600      0.87567  1.0000
  C           0.08213      0.90130      0.13033  1.0000
  C           0.07517      0.60342      0.95194  1.0000
  C           0.40241      0.28256      0.81112  1.0000
  C           0.52245      0.09084      0.11682  1.0000
  C           0.04294      0.48891      0.82124  1.0000
  C           0.08211      0.14716      0.41082  1.0000
  C           0.07180      0.55358      0.65977  1.0000
  C           0.88497      0.13525      0.40879  1.0000
  C           0.83269      0.45919      0.97792  1.0000
  C           0.60431      0.34112      0.14584  1.0000
  C           0.69011      0.87825      0.31365  1.0000
  C           0.93018      0.81397      0.30721  1.0000
  C           0.84383      0.49082      0.59050  1.0000
  C           0.53126      0.76616      0.03376  1.0000
  C           0.65428      0.78581      0.74507  1.0000
  C           0.81301      0.04489      0.27555  1.0000
  C           0.26728      0.03872      0.46450  1.0000
  C           0.86691      0.86807      0.53348  1.0000
  C           0.36368      0.51608      0.66294  1.0000
  C           0.44223      0.80339      0.89689  1.0000
  C           0.18755      0.01527      0.77504  1.0000
  C           0.86680      0.15669      0.96838  1.0000
  C           0.76699      0.73970      0.38080  1.0000
  C           0.99525      0.04351      0.61962  1.0000
  C           0.01936      0.17439      0.81972  1.0000
  C           0.80600      0.59045      0.75124  1.0000
  C           0.94250      0.07418      0.13343  1.0000
  C           0.21323      0.08682      0.64099  1.0000
  C           0.77010      0.84213      0.86315  1.0000
  C           0.53935      0.93573      0.16328  1.0000
  C           0.54481      0.08856      0.81627  1.0000
  C           0.58886      0.01519      0.88969  1.0000
  C           0.10737      0.10904      0.20680  1.0000
  C           0.27065      0.64973      0.29641  1.0000
  C           0.61225      0.47154      0.46442  1.0000
  C           0.13490      0.19343      0.47332  1.0000
  C           0.60191      0.30382      0.32446  1.0000
  C           0.97063      0.37095      0.28470  1.0000
  C           0.44220      0.48036      0.42141  1.0000
  C           0.78550      0.75164      0.06402  1.0000
  C           0.59270      0.45880      0.60373  1.0000
  C           0.09605      0.87008      0.88279  1.0000
  C           0.69080      0.35557      0.32906  1.0000
  C           0.70268      0.69233      0.31064  1.0000
  C           0.19667      0.90411      0.61998  1.0000
  C           0.71670      0.42313      0.83699  1.0000
  C           0.14215      0.45199      0.21120  1.0000
  C           0.11110      0.43181      0.97765  1.0000
  C           0.48878      0.61251      0.50401  1.0000
  C           0.75629      0.45770      0.20251  1.0000
  C           0.22636      0.18753      0.36248  1.0000
  C           0.15901      0.19723      0.17484  1.0000
  C           0.25515      0.97212      0.18686  1.0000
  C           0.53274      0.54025      0.44026  1.0000
  C           0.75847      0.28910      0.38939  1.0000
  C           0.85112      0.52980      0.83029  1.0000
  C           0.27332      0.30530      0.20954  1.0000
  C           0.06974      0.97610      0.63798  1.0000
  C           0.37704      0.38779      0.79565  1.0000
  C           0.27663      0.09684      0.38049  1.0000
  C           0.55202      0.20040      0.19506  1.0000
  C           0.25853      0.57817      0.90862  1.0000
  C           0.30524      0.17150      0.90817  1.0000
  C           0.37078      0.91446      0.00840  1.0000
  C           0.39720      0.52886      0.89000  1.0000
  C           0.86311      0.06774      0.62743  1.0000
  C           0.92840      0.49396      0.99331  1.0000
  C           0.63163      0.55754      0.89035  1.0000
  C           0.99617      0.79030      0.01519  1.0000
  C           0.55741      0.72706      0.62209  1.0000
  C           0.75933      0.21811      0.74215  1.0000
  C           0.17985      0.39765      0.05846  1.0000
  C           0.58833      0.47504      0.92987  1.0000
  C           0.70048      0.89536      0.13095  1.0000
  C           0.56266      0.70908      0.24167  1.0000
  C           0.91473      0.58427      0.89475  1.0000
  C           0.88871      0.31096      0.68276  1.0000
  C           0.46152      0.52517      0.23007  1.0000
  C           0.18298      0.91534      0.31888  1.0000
  C           0.82157      0.74933      0.22093  1.0000
  C           0.82394      0.36647      0.02522  1.0000
  C           0.76659      0.39287      0.11236  1.0000
  C           0.46149      0.73457      0.96766  1.0000
  C           0.61709      0.70133      0.02233  1.0000
  C           0.48943      0.60519      0.11780  1.0000
  C           0.37627      0.89360      0.60877  1.0000
  C           0.49406      0.07567      0.98540  1.0000
  C           0.17561      0.81006      0.02642  1.0000
  C           0.76624      0.46105      0.52911  1.0000
  C           0.39542      0.18103      0.27998  1.0000
  C           0.20189      0.92217      0.47918  1.0000
  C           0.39694      0.13595      0.67245  1.0000
  C           0.77724      0.09365      0.99470  1.0000
  C           0.48178      0.13433      0.89442  1.0000
  C           0.59318      0.93549      0.75025  1.0000
  C           0.76329      0.35973      0.54987  1.0000
  C           0.16070      0.00610      0.59122  1.0000
  C           0.74894      0.56616      0.08682  1.0000
  C           0.53916      0.33331      0.40549  1.0000
  C           0.92010      0.77799      0.84552  1.0000
  C           0.04559      0.90792      0.79954  1.0000
  C           0.16759      0.74636      0.60850  1.0000
  C           0.95369      0.95905      0.82249  1.0000
  C           0.37744      0.09319      0.33896  1.0000
  C           0.16637      0.71839      0.77902  1.0000
  C           0.86612      0.60536      0.66886  1.0000
  C           0.84022      0.21044      0.37526  1.0000
  C           0.11992      0.57748      0.48820  1.0000
  C           0.08694      0.80960      0.41593  1.0000
  C           0.29694      0.53018      0.15126  1.0000
  C           0.92703      0.36158      0.77158  1.0000
  C           0.85770      0.97138      0.53330  1.0000
  C           0.51924      0.24017      0.92282  1.0000
  C           0.48922      0.70731      0.45809  1.0000
  C           0.45142      0.79534      0.70264  1.0000
  C           0.81679      0.19781      0.13328  1.0000
  C           0.58506      0.91556      0.60176  1.0000
  C           0.33422      0.67667      0.74745  1.0000
  C           0.67461      0.31840      0.51917  1.0000
  C           0.21530      0.30242      0.29223  1.0000
  C           0.64805      0.72018      0.65954  1.0000
  C           0.38596      0.69994      0.02765  1.0000
  C           0.70741      0.45849      0.73701  1.0000
  C           0.00739      0.89704      0.20069  1.0000
  C           0.86728      0.86590      0.86452  1.0000
  C           0.87559      0.07466      0.77949  1.0000
  C           0.20290      0.58419      0.67109  1.0000
  C           0.97536      0.16781      0.08777  1.0000
  C           0.45922      0.97152      0.01292  1.0000
  C           0.18457      0.82114      0.26068  1.0000
  C           0.53855      0.41981      0.85581  1.0000
  C           0.47233      0.00062      0.11733  1.0000
  C           0.15604      0.61451      0.79939  1.0000
  C           0.69028      0.94690      0.78102  1.0000
  C           0.50077      0.15235      0.27330  1.0000
  C           0.26301      0.21899      0.15786  1.0000
  C           0.01262      0.29600      0.54345  1.0000
  C           0.19420      0.61410      0.34986  1.0000
  C           0.25920      0.07156      0.27770  1.0000
  C           0.08914      0.27819      0.17010  1.0000
  C           0.51453      0.53503      0.58557  1.0000
  C           0.01875      0.62875      0.31263  1.0000
  C           0.02880      0.57550      0.11576  1.0000
  C           0.71133      0.87779      0.95096  1.0000
  C           0.57740      0.58662      0.35704  1.0000
  C           0.36055      0.75015      0.29355  1.0000
  C           0.65261      0.72500      0.89411  1.0000
  C           0.42321      0.14089      0.04026  1.0000
  C           0.87489      0.34437      0.42736  1.0000
  C           0.25486      0.75659      0.30528  1.0000
  C           0.65160      0.91005      0.53033  1.0000
  C           0.14608      0.29014      0.85230  1.0000
  C           0.58013      0.37639      0.49168  1.0000
  C           0.75190      0.75173      0.91078  1.0000
  C           0.01292      0.86435      0.45754  1.0000
  C           0.88951      0.71831      0.43274  1.0000
  C           0.35966      0.61901      0.34693  1.0000
  C           0.31365      0.00680      0.99791  1.0000
  C           0.37881      0.26023      0.34749  1.0000
  C           0.50788      0.95252      0.91035  1.0000
  C           0.07483      0.27430      0.00193  1.0000
  C           0.70494      0.56834      0.72429  1.0000
  C           0.22060      0.44897      0.14096  1.0000
  C           0.70085      0.31736      0.14697  1.0000
  C           0.75464      0.84566      0.37930  1.0000
  C           0.94816      0.02660      0.52420  1.0000
  C           0.10608      0.67625      0.34358  1.0000
  C           0.39434      0.06967      0.59393  1.0000
  C           0.48179      0.85665      0.16981  1.0000
  C           0.80224      0.29740      0.95939  1.0000
  C           0.75114      0.61086      0.99205  1.0000
  C           0.26472      0.75421      0.76298  1.0000
  C           0.69337      0.53481      0.22855  1.0000
  C           0.97551      0.83598      0.76224  1.0000
  C           0.40069      0.96046      0.86793  1.0000
  C           0.01720      0.79999      0.24947  1.0000
  C           0.38876      0.99147      0.18113  1.0000
  C           0.99334      0.47917      0.66255  1.0000
  C           0.28530      0.37437      0.65537  1.0000
  C           0.99588      0.16699      0.25613  1.0000
  C           0.62012      0.83460      0.04095  1.0000
  C           0.13815      0.01698      0.01409  1.0000
  C           0.03296      0.64217      0.50526  1.0000
  C           0.66958      0.45365      0.37261  1.0000
  C           0.30300      0.39655      0.94437  1.0000
  C           0.77115      0.99093      0.72890  1.0000
  C           0.55765      0.00860      0.64119  1.0000
  C           0.84135      0.09297      0.17416  1.0000
  C           0.61913      0.81861      0.93282  1.0000
  C           0.44114      0.60084      0.27898  1.0000
  C           0.99515      0.63022      0.20403  1.0000
  C           0.23875      0.36962      0.41720  1.0000
  C           0.35863      0.71538      0.57447  1.0000
  C           0.47490      0.36688      0.22783  1.0000
  C           0.98237      0.32250      0.96139  1.0000
  C           0.65927      0.02765      0.22907  1.0000
  C           0.86876      0.76462      0.72121  1.0000
  C           0.48371      0.19021      0.65994  1.0000
  C           0.79245      0.35468      0.65219  1.0000
  C           0.85393      0.82774      0.43464  1.0000
  C           0.61468      0.50719      0.29578  1.0000
  C           0.91542      0.86670      0.13862  1.0000
  C           0.32624      0.08840      0.05688  1.0000
  C           0.41280      0.60152      0.04841  1.0000
  C           0.22987      0.66347      0.96447  1.0000
  C           0.19398      0.91131      0.89402  1.0000
  C           0.93619      0.91768      0.92574  1.0000
  C           0.23225      0.87808      0.07716  1.0000
  C           0.17107      0.41671      0.72105  1.0000
  C           0.05773      0.20725      0.32688  1.0000
  C           0.88732      0.21108      0.05413  1.0000
  C           0.51939      0.23335      0.44086  1.0000
  C           0.51579      0.00775      0.74447  1.0000
  C           0.71275      0.27340      0.92839  1.0000
  C           0.95343      0.29451      0.86111  1.0000
  C           0.42485      0.95707      0.76613  1.0000
  C           0.54684      0.13595      0.59898  1.0000
  C           0.65427      0.17026      0.18852  1.0000
  C           0.31293      0.50451      0.95936  1.0000
  C           0.31767      0.02944      0.89643  1.0000
  C           0.28948      0.84140      0.74461  1.0000
  C           0.69790      0.82464      0.52748  1.0000
  C           0.65981      0.03834      0.39645  1.0000
  C           0.83480      0.71004      0.80738  1.0000
  C           0.78188      0.48456      0.88937  1.0000
  C           0.64987      0.68858      0.79061  1.0000
  C           0.70215      0.14482      0.84922  1.0000
  C           0.04686      0.47962      0.16690  1.0000
  C           0.35174      0.98969      0.62861  1.0000
  C           0.70128      0.22921      0.46201  1.0000
  C           0.94402      0.70397      0.33832  1.0000
  C           0.43610      0.43360      0.86787  1.0000
  C           0.61756      0.55516      0.78762  1.0000
  C           0.27977      0.86318      0.57119  1.0000
  C           0.30206      0.56566      0.48657  1.0000
  C           0.50175      0.40119      0.57224  1.0000
  C           0.64616      0.21274      0.36171  1.0000
  C           0.38299      0.67660      0.22692  1.0000
  C           0.12559      0.76046      0.86961  1.0000
  C           0.78680      0.83026      0.59039  1.0000
  C           0.94121      0.76989      0.10108  1.0000
  C           0.77171      0.22834      0.84757  1.0000
  C           0.20385      0.23226      0.54190  1.0000
  C           0.78203      0.00099      0.61482  1.0000
  C           0.25708      0.40376      0.55862  1.0000
  C           0.00350      0.53104      0.91438  1.0000
  C           0.90865      0.30973      0.04121  1.0000
  C           0.13174      0.37503      0.40479  1.0000
  C           0.67314      0.07605      0.13747  1.0000
  C           0.87604      0.70229      0.63502  1.0000
  C           0.76572      0.08695      0.77198  1.0000
  C           0.02234      0.40415      0.10377  1.0000
  C           0.97936      0.47925      0.24712  1.0000
  C           0.56527      0.83719      0.77370  1.0000
  C           0.94354      0.55638      0.71906  1.0000
  C           0.96312      0.73309      0.93330  1.0000
  C           0.03663      0.12833      0.91364  1.0000
  C           0.02553      0.88798      0.96258  1.0000
  C           0.30922      0.93635      0.48797  1.0000
  C           0.24389      0.54842      0.80092  1.0000
  C           0.47796      0.91999      0.45777  1.0000
  C           0.71264      0.55845      0.39803  1.0000
  C           0.88894      0.03369      0.87598  1.0000
  C           0.47414      0.27329      0.72931  1.0000
  C           0.68127      0.59662      0.56000  1.0000
  C           0.15359      0.26274      0.63021  1.0000
  C           0.15900      0.48986      0.64759  1.0000
  C           0.85094      0.59903      0.12945  1.0000
  C           0.79823      0.39749      0.38980  1.0000
  C           0.55297      0.15976      0.36776  1.0000
  C           0.41107      0.37376      0.95748  1.0000
  C           0.79547      0.00905      0.93160  1.0000
  C           0.05557      0.69593      0.91114  1.0000
  C           0.50339      0.04596      0.28046  1.0000
  C           0.10054      0.15900      0.75266  1.0000
  C           0.24905      0.15460      0.04033  1.0000
  C           0.60220      0.28770      0.59050  1.0000
  C           0.27211      0.00327      0.67057  1.0000
  C           0.27405      0.96200      0.29415  1.0000
  C           0.59992      0.91017      0.32951  1.0000
  C           0.00417      0.06813      0.21554  1.0000
  C           0.94322      0.34751      0.12848  1.0000
  C           0.57353      0.97743      0.25285  1.0000
  C           0.40875      0.10859      0.44161  1.0000
  C           0.28841      0.62676      0.19100  1.0000
  C           0.85902      0.21324      0.70010  1.0000
  C           0.10240      0.70623      0.45085  1.0000
  C           0.21102      0.01125      0.87333  1.0000
  C           0.41677      0.39723      0.13342  1.0000
  C           0.38535      0.87492      0.71362  1.0000
  C           0.56939      0.35416      0.04960  1.0000
  C           0.80206      0.69738      0.98116  1.0000
  C           0.71874      0.74822      0.22071  1.0000
  C           0.09248      0.34305      0.60134  1.0000
  C           0.36222      0.21157      0.98749  1.0000
  C           0.52314      0.82846      0.62261  1.0000
  C           0.19259      0.64810      0.05499  1.0000
  C           0.76086      0.85673      0.04665  1.0000
  C           0.39438      0.84275      0.27012  1.0000
  C           0.71375      0.22209      0.11080  1.0000
  C           0.04994      0.65063      0.61226  1.0000
  C           0.65736      0.58737      0.14420  1.0000
  C           0.00986      0.97933      0.26883  1.0000
  C           0.93418      0.87927      0.38668  1.0000
  C           0.36629      0.92201      0.32700  1.0000
  C           0.74512      0.35546      0.24006  1.0000
  C           0.34711      0.52542      0.39921  1.0000
  C           0.45220      0.85831      0.54870  1.0000
  C           0.04298      0.35439      0.45467  1.0000
  C           0.78915      0.49002      0.43192  1.0000
  C           0.86189      0.03962      0.36669  1.0000
  C           0.70189      0.16922      0.28603  1.0000
  C           0.20382      0.16783      0.94237  1.0000
  C           0.33132      0.85248      0.08624  1.0000
  C           0.61127      0.92930      0.09031  1.0000
  C           0.74565      0.64894      0.82429  1.0000
  C           0.76724      0.06451      0.09782  1.0000
  C           0.16109      0.01938      0.48744  1.0000
  C           0.21145      0.71990      0.48006  1.0000
  C           0.40307      0.35011      0.30718  1.0000
  C           0.32224      0.74684      0.07931  1.0000
  C           0.68382      0.63312      0.64709  1.0000
  C           0.56479      0.55350      0.09636  1.0000
  C           0.49087      0.03102      0.46476  1.0000
  C           0.70965      0.06686      0.56466  1.0000
  C           0.95482      0.48974      0.40359  1.0000
  C           0.55505      0.21872      0.53957  1.0000
  C           0.25103      0.78321      0.40667  1.0000
  C           0.96950      0.82997      0.55269  1.0000
  C           0.90029      0.65716      0.97275  1.0000
  C           0.70057      0.64000      0.47037  1.0000
  C           0.66235      0.74826      0.47696  1.0000
  C           0.94176      0.44263      0.58313  1.0000
  C           0.47787      0.40429      0.35777  1.0000
  C           0.26706      0.18566      0.74206  1.0000
  C           0.96568      0.02447      0.04157  1.0000
  C           0.21247      0.31337      0.69957  1.0000
  C           0.15084      0.42695      0.56314  1.0000
  C           0.68392      0.75446      0.09019  1.0000
  C           0.44976      0.35251      0.64929  1.0000
  C           0.94469      0.97866      0.35298  1.0000
  C           0.10452      0.60864      0.05176  1.0000
  C           0.31690      0.20018      0.65533  1.0000
  C           0.36804      0.26857      0.51652  1.0000
  C           0.16388      0.26768      0.94805  1.0000
  C           0.57362      0.75666      0.41785  1.0000
  C           0.72411      0.30225      0.70238  1.0000
  C           0.73310      0.84978      0.76416  1.0000
  C           0.56905      0.06696      0.40678  1.0000
  C           0.37445      0.41235      0.69543  1.0000
  C           0.48888      0.05511      0.56465  1.0000
  C           0.55042      0.86514      0.39953  1.0000
  C           0.80990      0.84790      0.69235  1.0000
  C           0.97414      0.73452      0.59824  1.0000
  C           0.85407      0.32025      0.51684  1.0000
  C           0.64438      0.68882      0.16972  1.0000
  C           0.32834      0.48570      0.55860  1.0000
  C           0.60506      0.03535      0.07300  1.0000
  C           0.14309      0.67000      0.67689  1.0000
  C           0.26249      0.15710      0.58010  1.0000
  C           0.73379      0.46558      0.03813  1.0000
  C           0.84815      0.59190      0.30982  1.0000
  C           0.15063      0.56462      0.89651  1.0000
  C           0.13139      0.46175      0.88168  1.0000
  C           0.25936      0.84845      0.91031  1.0000
  C           0.14019      0.37868      0.29053  1.0000
  C           0.08631      0.19202      0.66408  1.0000
  C           0.25286      0.68920      0.11869  1.0000
  C           0.29807      0.57953      0.71823  1.0000
  C           0.05392      0.28084      0.80476  1.0000
  C           0.02210      0.52569      0.33436  1.0000
  C           0.95905      0.37998      0.38893  1.0000
  C           0.83766      0.70033      0.30928  1.0000
  C           0.26539      0.75650      0.56602  1.0000
  C           0.88384      0.96991      0.99459  1.0000
  C           0.31500      0.05694      0.15231  1.0000
  C           0.40291      0.25841      0.61536  1.0000
  C           0.36301      0.86598      0.91388  1.0000
  C           0.73919      0.59570      0.30323  1.0000
  C           0.24065      0.33473      0.00132  1.0000
  C           0.69940      0.99454      0.48106  1.0000
  C           0.05468      0.17220      0.01885  1.0000
  C           0.12525      0.83207      0.61278  1.0000
  C           0.47816      0.76766      0.80099  1.0000
  C           0.06997      0.57492      0.76327  1.0000
  C           0.80200      0.99517      0.44709  1.0000
  C           0.92681      0.62622      0.47882  1.0000
  C           0.00879      0.42261      0.00016  1.0000
  C           0.09737      0.33466      0.08706  1.0000
  C           0.19156      0.51362      0.33728  1.0000
  C           0.41358      0.60853      0.63630  1.0000
  C           0.34998      0.79872      0.42745  1.0000
  C           0.43402      0.47422      0.52911  1.0000
  C           0.47681      0.68329      0.17855  1.0000
  C           0.93925      0.12963      0.48522  1.0000
  C           0.42006      0.27510      0.92460  1.0000
  C           0.20919      0.45060      0.80871  1.0000
  C           0.93093      0.58318      0.05580  1.0000
  C           0.60874      0.07136      0.97592  1.0000
  C           0.69823      0.84713      0.22196  1.0000
  C           0.66687      0.22066      0.01113  1.0000
  C           0.98198      0.74068      0.70891  1.0000
  C           0.28121      0.27607      0.37590  1.0000
  C           0.90299      0.56314      0.22571  1.0000
  C           0.52751      0.45771      0.27047  1.0000
  C           0.02669      0.14457      0.61172  1.0000
  C           0.14200      0.08459      0.92253  1.0000
  C           0.14231      0.11977      0.05234  1.0000
  C           0.32975      0.10560      0.51783  1.0000
  C           0.75770      0.16237      0.53675  1.0000
  C           0.81985      0.95042      0.22497  1.0000
  C           0.46097      0.56773      0.96182  1.0000
  C           0.56859      0.31360      0.85852  1.0000
  C           0.00365      0.97871      0.44628  1.0000
  C           0.15961      0.05959      0.26068  1.0000
  C           0.09945      0.96615      0.73774  1.0000
  C           0.28277      0.38609      0.84141  1.0000
  C           0.49697      0.79210      0.25626  1.0000
  C           0.41646      0.77071      0.50822  1.0000
  C           0.52582      0.49534      0.01363  1.0000
  C           0.31070      0.23095      0.82274  1.0000
  C           0.57661      0.46320      0.77123  1.0000
  C           0.62594      0.31427      0.68791  1.0000
  C           0.60112      0.64393      0.93555  1.0000
  C           0.87504      0.55136      0.40759  1.0000
  C           0.57292      0.26607      0.76598  1.0000
  C           0.91743      0.64654      0.81611  1.0000
  C           0.83686      0.15892      0.61011  1.0000
  C           0.68341      0.13720      0.71596  1.0000
  C           0.60070      0.68611      0.33583  1.0000
  C           0.60808      0.16601      0.78660  1.0000
  C           0.71247      0.06737      0.30741  1.0000
  C           0.51058      0.19397      0.09099  1.0000
  C           0.55493      0.30111      0.22853  1.0000
  C           0.99697      0.72876      0.17909  1.0000
  C           0.63880      0.09020      0.63524  1.0000
  C           0.91097      0.33104      0.20973  1.0000
  C           0.05525      0.96153      0.03846  1.0000
  C           0.50220      0.65107      0.91980  1.0000
  C           0.38270      0.11009      0.85645  1.0000
  C           0.31313      0.14340      0.21351  1.0000
  C           0.22531      0.91990      0.72302  1.0000
  C           0.38027      0.61888      0.53222  1.0000
  C           0.99600      0.45301      0.49585  1.0000
  C           0.49047      0.76757      0.12354  1.0000
  C           0.05899      0.30993      0.27316  1.0000
  C           0.62100      0.41670      0.69045  1.0000
  C           0.64453      0.41199      0.99445  1.0000
  C           0.40618      0.71144      0.38793  1.0000
  C           0.09075      0.81916      0.05763  1.0000
  C           0.28813      0.25617      0.05406  1.0000
  C           0.84601      0.94270      0.78161  1.0000
  C           0.39836      0.49634      0.16714  1.0000
  C           0.37786      0.89966      0.42396  1.0000
  C           0.99638      0.65021      0.75179  1.0000
  C           0.40622      0.00879      0.28482  1.0000
  C           0.56476      0.24925      0.01850  1.0000
  C           0.39078      0.60911      0.81674  1.0000
  C           0.73112      0.57381      0.90268  1.0000
  C           0.53835      0.85581      0.88263  1.0000
  C           0.85264      0.71189      0.13145  1.0000
  C           0.88502      0.46379      0.75420  1.0000
  C           0.27722      0.45640      0.35880  1.0000
  C           0.68725      0.13203      0.95641  1.0000
  C           0.92709      0.33820      0.58680  1.0000
  C           0.79447      0.21036      0.28570  1.0000
  C           0.08240      0.34611      0.71632  1.0000
  C           0.46951      0.40064      0.04202  1.0000
  C           0.20962      0.75880      0.93781  1.0000
  C           0.10627      0.47873      0.37470  1.0000
  C           0.99151      0.19069      0.53683  1.0000
  C           0.55641      0.63340      0.75416  1.0000
  C           0.48309      0.66487      0.81753  1.0000
  C           0.38838      0.10182      0.76110  1.0000
  C           0.91770      0.17073      0.78593  1.0000
  C           0.37881      0.88574      0.16975  1.0000
  C           0.18285      0.89072      0.17226  1.0000
  C           0.09798      0.78104      0.30490  1.0000
  C           0.66078      0.35751      0.89894  1.0000
  C           0.00245      0.21838      0.17313  1.0000
  C           0.01225      0.41941      0.74721  1.0000
  C           0.52071      0.62873      0.65266  1.0000
  C           0.67341      0.49843      0.54721  1.0000
  C           0.80258      0.72947      0.57244  1.0000
  C           0.19074      0.11382      0.74319  1.0000
  C           0.85242      0.91256      0.06992  1.0000
  C           0.78229      0.96244      0.12812  1.0000
  C           0.86172      0.84910      0.23358  1.0000
  C           0.41725      0.22061      0.43922  1.0000
  C           0.21312      0.61562      0.45869  1.0000
  C           0.10124      0.47535      0.48960  1.0000
  C           0.78884      0.70117      0.47779  1.0000
  C           0.91193      0.90031      0.70763  1.0000
  C           0.32308      0.40804      0.28057  1.0000
  C           0.15491      0.20996      0.28630  1.0000
  C           0.94691      0.08410      0.95104  1.0000
  C           0.80599      0.45400      0.68616  1.0000
  C           0.39791      0.71329      0.67344  1.0000
  C           0.17984      0.85886      0.40671  1.0000
  C           0.04311      0.88059      0.60624  1.0000
  C           0.23130      0.30135      0.80189  1.0000
  C           0.87284      0.58951      0.56110  1.0000
  C           0.08907      0.03761      0.41746  1.0000
