data_cif

_audit_creation_method             'generated by GULP'

_symmetry_space_group_name_H-M     'P 1'
_symmetry_Int_Tables_number        1
_symmetry_cell_setting             triclinic

_cell_length_a                        7.7266
_cell_length_b                        7.7266
_cell_length_c                        7.7266
_cell_angle_alpha                   90.0000
_cell_angle_beta                    90.0000
_cell_angle_gamma                   90.0000

loop_
_atom_site_label
_atom_site_fract_x
_atom_site_fract_y
_atom_site_fract_z
_atom_site_occupancy
  C           0.47604      0.51988      0.06502  1.0000
  C           0.40797      0.73629      0.31037  1.0000
  C           0.29037      0.26323      0.91035  1.0000
  C           0.10382      0.00776      0.61933  1.0000
  C           0.95571      0.85523      0.88527  1.0000
  C           0.79640      0.47627      0.58456  1.0000
  C           0.61716      0.41110      0.68015  1.0000
  C           0.78663      0.71340      0.34341  1.0000
  C           0.88549      0.24189      0.32915  1.0000
  C           0.68958      0.15790      0.14490  1.0000
  C           0.86885      0.03351      0.36538  1.0000
  C           0.95030      0.93132      0.52544  1.0000
  C           0.51754      0.05810      0.15374  1.0000
  C           0.54854      0.97763      0.49918  1.0000
  C           0.46858      0.32975      0.00132  1.0000
  C           0.95035      0.34925      0.49150  1.0000
  C           0.15901      0.41967      0.83376  1.0000
  C           0.82936      0.73537      0.81601  1.0000
  C           0.90965      0.94561      0.04085  1.0000
  C           0.14383      0.91603      0.80110  1.0000
  C           0.86935      0.64872      0.65868  1.0000
  C           0.88984      0.12449      0.73079  1.0000
  C           0.49589      0.59467      0.41418  1.0000
  C           0.65097      0.70480      0.88557  1.0000
  C           0.64046      0.58561      0.02754  1.0000
  C           0.78754      0.97873      0.71798  1.0000
  C           0.47608      0.45145      0.57765  1.0000
  C           0.35952      0.63668      0.14267  1.0000
  C           0.58887      0.95430      0.69476  1.0000
  C           0.71648      0.33812      0.23442  1.0000
  C           0.01138      0.19946      0.15700  1.0000
  C           0.97128      0.39361      0.89954  1.0000
  C           0.50294      0.78928      0.79108  1.0000
  C           0.85221      0.13421      0.03910  1.0000
  C           0.35380      0.17750      0.71447  1.0000
  C           0.11442      0.47769      0.45234  1.0000
  C           0.18648      0.17126      0.08247  1.0000
  C           0.28200      0.39710      0.51908  1.0000
  C           0.09975      0.67246      0.42390  1.0000
  C           0.93250      0.49731      0.04087  1.0000
  C           0.83576      0.24275      0.87630  1.0000
  C           0.37862      0.21623      0.16953  1.0000
  C           0.39256      0.11443      0.51207  1.0000
  C           0.97649      0.70927      0.27075  1.0000
  C           0.39726      0.27750      0.37306  1.0000
  C           0.56198      0.39787      0.34134  1.0000
  C           0.30525      0.76486      0.79323  1.0000
  C           0.92011      0.89454      0.21546  1.0000
  C           0.76619      0.48340      0.10769  1.0000
  C           0.25254      0.80296      0.41772  1.0000
  C           0.70265      0.55314      0.41606  1.0000
  C           0.95485      0.74858      0.53663  1.0000
  C           0.22854      0.60557      0.87007  1.0000
  C           0.03962      0.61491      0.11826  1.0000
  C           0.62505      0.28506      0.85040  1.0000
  C           0.43703      0.01703      0.97257  1.0000
  C           0.51896      0.91120      0.29092  1.0000
  C           0.20392      0.63894      0.05286  1.0000
  C           0.03634      0.20872      0.61804  1.0000
  C           0.25553      0.95962      0.49667  1.0000
  C           0.71147      0.89375      0.37590  1.0000
  C           0.24132      0.01345      0.95646  1.0000
  C           0.51483      0.10179      0.81207  1.0000
  C           0.19886      0.30406      0.67316  1.0000
