data_cif

_audit_creation_method             'generated by GULP'

_symmetry_space_group_name_H-M     'P 1'
_symmetry_Int_Tables_number        1
_symmetry_cell_setting             triclinic

_cell_length_a                        7.7772
_cell_length_b                        7.3704
_cell_length_c                        7.7079
_cell_angle_alpha                   89.0396
_cell_angle_beta                    88.8737
_cell_angle_gamma                   90.3638

loop_
_atom_site_label
_atom_site_fract_x
_atom_site_fract_y
_atom_site_fract_z
_atom_site_occupancy
  C           0.47604      0.51988      0.06502  1.0000
  C           0.40823      0.73957      0.30432  1.0000
  C           0.28350      0.25780      0.90354  1.0000
  C           0.12174      0.01500      0.61982  1.0000
  C           0.96163      0.85812      0.88177  1.0000
  C           0.79123      0.48481      0.57765  1.0000
  C           0.61165      0.41822      0.67425  1.0000
  C           0.79174      0.71788      0.32819  1.0000
  C           0.88506      0.25299      0.32386  1.0000
  C           0.67796      0.16461      0.13050  1.0000
  C           0.87674      0.03907      0.36268  1.0000
  C           0.96197      0.95597      0.52333  1.0000
  C           0.51070      0.06222      0.14151  1.0000
  C           0.55409      0.98578      0.48709  1.0000
  C           0.46177      0.32603      0.99300  1.0000
  C           0.94689      0.35716      0.48298  1.0000
  C           0.15407      0.42117      0.82852  1.0000
  C           0.83177      0.73873      0.81456  1.0000
  C           0.92012      0.95431      0.03708  1.0000
  C           0.14761      0.91641      0.79466  1.0000
  C           0.86836      0.65600      0.65438  1.0000
  C           0.87994      0.13259      0.72088  1.0000
  C           0.49946      0.60010      0.40977  1.0000
  C           0.65315      0.71026      0.88219  1.0000
  C           0.63874      0.59132      0.02802  1.0000
  C           0.78176      0.98041      0.70667  1.0000
  C           0.47251      0.45397      0.57273  1.0000
  C           0.35871      0.63934      0.14024  1.0000
  C           0.58957      0.95686      0.68029  1.0000
  C           0.71804      0.33739      0.23261  1.0000
  C           0.00114      0.18705      0.14808  1.0000
  C           0.96543      0.40409      0.89021  1.0000
  C           0.50612      0.78958      0.78506  1.0000
  C           0.83778      0.14148      0.02454  1.0000
  C           0.34961      0.17698      0.70432  1.0000
  C           0.11416      0.48102      0.44937  1.0000
  C           0.17747      0.15674      0.07634  1.0000
  C           0.28167      0.39780      0.51232  1.0000
  C           0.09891      0.68084      0.41943  1.0000
  C           0.93015      0.50657      0.03509  1.0000
  C           0.82571      0.25414      0.86356  1.0000
  C           0.36294      0.21400      0.16577  1.0000
  C           0.39947      0.12097      0.50259  1.0000
  C           0.98338      0.71556      0.26590  1.0000
  C           0.39491      0.28156      0.35875  1.0000
  C           0.56062      0.39731      0.33618  1.0000
  C           0.31527      0.76748      0.78930  1.0000
  C           0.93782      0.90994      0.21178  1.0000
  C           0.76628      0.49262      0.10794  1.0000
  C           0.25478      0.80680      0.41139  1.0000
  C           0.70392      0.55623      0.40627  1.0000
  C           0.95775      0.76241      0.53400  1.0000
  C           0.23248      0.60579      0.86940  1.0000
  C           0.04327      0.61650      0.11568  1.0000
  C           0.61996      0.28991      0.84011  1.0000
  C           0.43772      0.00881      0.96483  1.0000
  C           0.52009      0.91504      0.28156  1.0000
  C           0.20695      0.63876      0.05074  1.0000
  C           0.02409      0.21226      0.60844  1.0000
  C           0.26320      0.96598      0.49220  1.0000
  C           0.71485      0.90516      0.35729  1.0000
  C           0.24790      0.99403      0.95637  1.0000
  C           0.50955      0.10251      0.80249  1.0000
  C           0.18996      0.30295      0.66836  1.0000
