data_cif

_audit_creation_method             'generated by GULP'

_symmetry_space_group_name_H-M     'P 1'
_symmetry_Int_Tables_number        1
_symmetry_cell_setting             triclinic

_cell_length_a                       14.6881
_cell_length_b                       14.6881
_cell_length_c                       14.6881
_cell_angle_alpha                   90.0000
_cell_angle_beta                    90.0000
_cell_angle_gamma                   90.0000

loop_
_atom_site_label
_atom_site_fract_x
_atom_site_fract_y
_atom_site_fract_z
_atom_site_occupancy
  C           0.33715      0.08377      0.60111  1.0000
  C           0.45718      0.13174      0.51836  1.0000
  C           0.72896      0.39454      0.09165  1.0000
  C           0.82720      0.13575      0.22463  1.0000
  C           0.44953      0.98868      0.17714  1.0000
  C           0.37620      0.71434      0.79240  1.0000
  C           0.94048      0.80390      0.36637  1.0000
  C           0.11342      0.72626      0.16742  1.0000
  C           0.15887      0.41342      0.18033  1.0000
  C           0.07587      0.56286      0.93859  1.0000
  C           0.45576      0.49514      0.45286  1.0000
  C           0.19316      0.16247      0.62733  1.0000
  C           0.50209      0.87294      0.64579  1.0000
  C           0.95108      0.82747      0.92108  1.0000
  C           0.27058      0.02045      0.64492  1.0000
  C           0.13900      0.25153      0.37351  1.0000
  C           0.64320      0.47821      0.73026  1.0000
  C           0.15595      0.84827      0.80099  1.0000
  C           0.67263      0.89025      0.52378  1.0000
  C           0.36227      0.98108      0.78972  1.0000
  C           0.78864      0.89638      0.05657  1.0000
  C           0.96932      0.48374      0.34315  1.0000
  C           0.75515      0.34880      0.66139  1.0000
  C           0.22775      0.35908      0.55052  1.0000
  C           0.57748      0.96069      0.40355  1.0000
  C           0.10933      0.46275      0.92236  1.0000
  C           0.58780      0.72311      0.98602  1.0000
  C           0.93039      0.73812      0.19040  1.0000
  C           0.34960      0.02506      0.89371  1.0000
  C           0.22516      0.29395      0.31512  1.0000
  C           0.17279      0.44198      0.50244  1.0000
  C           0.66647      0.55219      0.02038  1.0000
  C           0.01766      0.13690      0.64733  1.0000
  C           0.50977      0.20033      0.14280  1.0000
  C           0.57930      0.64742      0.91710  1.0000
  C           0.93672      0.45978      0.53919  1.0000
  C           0.25589      0.28572      0.95470  1.0000
  C           0.73849      0.55680      0.93448  1.0000
  C           0.77471      0.47806      0.24033  1.0000
  C           0.71500      0.35057      0.82369  1.0000
  C           0.99111      0.08631      0.73753  1.0000
  C           0.15171      0.62702      0.97439  1.0000
  C           0.97311      0.88359      0.29842  1.0000
  C           0.57081      0.23897      0.99897  1.0000
  C           0.84774      0.10435      0.65608  1.0000
  C           0.87984      0.76621      0.97942  1.0000
  C           0.01972      0.31656      0.31296  1.0000
  C           0.62557      0.94207      0.01753  1.0000
  C           0.74915      0.38218      0.25648  1.0000
  C           0.31994      0.44420      0.60308  1.0000
  C           0.02659      0.31502      0.67557  1.0000
  C           0.20695      0.47368      0.86071  1.0000
  C           0.04459      0.78034      0.67210  1.0000
  C           0.17739      0.39061      0.80658  1.0000
  C           0.24775      0.23902      0.78295  1.0000
  C           0.20814      0.98282      0.41209  1.0000
  C           0.06157      0.76264      0.08323  1.0000
  C           0.43037      0.10540      0.27430  1.0000
  C           0.23460      0.56602      0.81904  1.0000
  C           0.58246      0.33303      0.62967  1.0000
  C           0.21296      0.12302      0.10304  1.0000
  C           0.38957      0.18038      0.90614  1.0000
  C           0.52176      0.52450      0.13283  1.0000
  C           0.05570      0.44209      0.18260  1.0000
  C           0.38685      0.37243      0.34875  1.0000
  C           0.81395      0.00653      0.07124  1.0000
  C           0.29740      0.25322      0.12541  1.0000
  C           0.47610      0.28402      0.48164  1.0000
  C           0.37207      0.72341      0.60433  1.0000
  C           0.79645      0.13654      0.89984  1.0000
  C           0.74206      0.47825      0.42432  1.0000
  C           0.86267      0.07119      0.84898  1.0000
  C           0.69558      0.87730      0.33097  1.0000
  C           0.11597      0.32843      0.55159  1.0000
  C           0.02509      0.06697      0.04115  1.0000
  C           0.00047      0.13690      0.31466  1.0000
  C           0.84012      0.78801      0.37178  1.0000
  C           0.69541      0.19808      0.59805  1.0000
  C           0.84403      0.41848      0.93055  1.0000
  C           0.07257      0.26728      0.22886  1.0000
  C           0.48837      0.34368      0.68140  1.0000
  C           0.52303      0.43327      0.00085  1.0000
  C           0.04116      0.59931      0.83963  1.0000
  C           0.59984      0.72412      0.34098  1.0000
  C           0.18952      0.92164      0.96020  1.0000
  C           0.57300      0.47181      0.08181  1.0000
  C           0.22205      0.84527      0.88841  1.0000
  C           0.63971      0.81200      0.38599  1.0000
  C           0.54983      0.72121      0.53278  1.0000
  C           0.42576      0.57069      0.60169  1.0000
  C           0.82039      0.93965      0.72843  1.0000
  C           0.41582      0.90542      0.12772  1.0000
  C           0.92273      0.48824      0.43978  1.0000
  C           0.09055      0.18769      0.29597  1.0000
  C           0.51998      0.07102      0.03293  1.0000
  C           0.85423      0.97886      0.22535  1.0000
  C           0.25932      0.62478      0.64226  1.0000
  C           0.67304      0.55899      0.43477  1.0000
  C           0.21327      0.42627      0.34459  1.0000
  C           0.13734      0.04454      0.35792  1.0000
  C           0.19261      0.08448      0.88611  1.0000
  C           0.88728      0.86709      0.03319  1.0000
  C           0.80388      0.17354      0.05400  1.0000
  C           0.72295      0.29817      0.91779  1.0000
  C           0.97235      0.94655      0.63195  1.0000
  C           0.63511      0.41697      0.82217  1.0000
  C           0.66576      0.89598      0.70377  1.0000
  C           0.07440      0.56452      0.31369  1.0000
  C           0.49443      0.19639      0.77419  1.0000
  C           0.55151      0.02344      0.85972  1.0000
  C           0.60320      0.62139      0.69059  1.0000
  C           0.24476      0.91541      0.29855  1.0000
  C           0.52703      0.13171      0.84996  1.0000
  C           0.42351      0.46902      0.01467  1.0000
  C           0.07151      0.79298      0.83673  1.0000
  C           0.29746      0.45739      0.90764  1.0000
  C           0.66868      0.04521      0.61167  1.0000
  C           0.82078      0.65177      0.59555  1.0000
  C           0.44659      0.65442      0.32861  1.0000
  C           0.75947      0.85075      0.81766  1.0000
  C           0.18100      0.71799      0.86678  1.0000
  C           0.83220      0.16745      0.30951  1.0000
  C           0.44384      0.75565      0.09402  1.0000
  C           0.63288      0.21023      0.35922  1.0000
  C           0.92995      0.54652      0.69845  1.0000
  C           0.69624      0.11659      0.19272  1.0000
  C           0.33836      0.86014      0.18522  1.0000
  C           0.56524      0.74022      0.24661  1.0000
  C           0.45129      0.78894      0.66011  1.0000
  C           0.16500      0.72476      0.37861  1.0000
  C           0.69287      0.80022      0.47544  1.0000
  C           0.33259      0.01965      0.00932  1.0000
  C           0.03601      0.44299      0.07860  1.0000
  C           0.05777      0.86942      0.08946  1.0000
  C           0.02513      0.54541      0.04131  1.0000
  C           0.24784      0.91619      0.13629  1.0000
  C           0.56729      0.90569      0.72115  1.0000
  C           0.10015      0.14321      0.02101  1.0000
  C           0.56954      0.55908      0.97776  1.0000
  C           0.58852      0.72659      0.72324  1.0000
  C           0.08686      0.67413      0.32314  1.0000
  C           0.00688      0.63041      0.57088  1.0000
  C           0.63539      0.98194      0.11480  1.0000
  C           0.08846      0.68626      0.81035  1.0000
  C           0.91363      0.55937      0.19649  1.0000
  C           0.39753      0.94645      0.54628  1.0000
  C           0.53484      0.47672      0.37735  1.0000
  C           0.07887      0.22488      0.66349  1.0000
  C           0.60349      0.86175      0.86485  1.0000
  C           0.69749      0.72063      0.70924  1.0000
  C           0.09819      0.46918      0.56675  1.0000
  C           0.92289      0.26091      0.90029  1.0000
  C           0.00278      0.05064      0.25353  1.0000
  C           0.69531      0.21853      0.19034  1.0000
  C           0.51787      0.92764      0.88294  1.0000
  C           0.54678      0.87318      0.02497  1.0000
  C           0.82588      0.31782      0.51021  1.0000
  C           0.12367      0.28121      0.92546  1.0000
  C           0.81089      0.85303      0.65694  1.0000
  C           0.81824      0.37565      0.83600  1.0000
  C           0.25023      0.16227      0.33497  1.0000
  C           0.77778      0.26705      0.59515  1.0000
  C           0.43785      0.95356      0.64117  1.0000
  C           0.93077      0.04088      0.48532  1.0000
  C           0.36475      0.54168      0.18111  1.0000
  C           0.55602      0.17257      0.68906  1.0000
  C           0.01047      0.79017      0.44498  1.0000
  C           0.17614      0.71910      0.54354  1.0000
  C           0.49382      0.96268      0.27021  1.0000
  C           0.59776      0.56039      0.36106  1.0000
  C           0.70520      0.69498      0.34540  1.0000
  C           0.25646      0.65136      0.53998  1.0000
  C           0.28237      0.63937      0.05921  1.0000
  C           0.17142      0.97230      0.50557  1.0000
  C           0.37374      0.33060      0.79054  1.0000
  C           0.29894      0.84108      0.46044  1.0000
  C           0.70093      0.64135      0.06736  1.0000
  C           0.71688      0.90475      0.98066  1.0000
  C           0.01675      0.98248      0.97284  1.0000
  C           0.21521      0.29733      0.85627  1.0000
  C           0.94552      0.58790      0.88545  1.0000
  C           0.80395      0.92328      0.56763  1.0000
  C           0.69963      0.07511      0.74069  1.0000
  C           0.22373      0.71866      0.70111  1.0000
  C           0.90504      0.98705      0.13306  1.0000
  C           0.53713      0.85281      0.39013  1.0000
  C           0.92637      0.15910      0.59372  1.0000
  C           0.37031      0.78611      0.02281  1.0000
  C           0.38185      0.37810      0.24080  1.0000
  C           0.48900      0.86037      0.29376  1.0000
  C           0.18852      0.58059      0.06876  1.0000
  C           0.85452      0.62464      0.14125  1.0000
  C           0.47129      0.17539      0.61598  1.0000
  C           0.36564      0.38751      0.03400  1.0000
  C           0.98180      0.05860      0.14512  1.0000
  C           0.61896      0.11371      0.33727  1.0000
  C           0.37721      0.75955      0.92047  1.0000
  C           0.26510      0.73863      0.79628  1.0000
  C           0.07810      0.33538      0.40269  1.0000
  C           0.87887      0.34831      0.04772  1.0000
  C           0.81088      0.50272      0.99106  1.0000
  C           0.23812      0.63258      0.90139  1.0000
  C           0.52329      0.71493      0.63453  1.0000
  C           0.31914      0.44785      0.19719  1.0000
  C           0.86081      0.47023      0.17563  1.0000
  C           0.85509      0.90037      0.81933  1.0000
  C           0.13281      0.87683      0.53313  1.0000
  C           0.33887      0.54328      0.34921  1.0000
  C           0.85018      0.97722      0.89272  1.0000
  C           0.55911      0.32770      0.23356  1.0000
  C           0.17895      0.57716      0.30412  1.0000
  C           0.49551      0.49078      0.28002  1.0000
  C           0.12684      0.21942      0.55716  1.0000
  C           0.86410      0.20792      0.50841  1.0000
  C           0.60052      0.07899      0.69944  1.0000
  C           0.12893      0.62376      0.15047  1.0000
  C           0.93307      0.35553      0.53348  1.0000
  C           0.10594      0.23137      0.08032  1.0000
  C           0.14976      0.80784      0.69903  1.0000
  C           0.01978      0.30888      0.48996  1.0000
  C           0.97063      0.34246      0.76090  1.0000
  C           0.30478      0.32635      0.49134  1.0000
  C           0.48508      0.57077      0.79237  1.0000
  C           0.02653      0.60551      0.12672  1.0000
  C           0.66155      0.40220      0.64920  1.0000
  C           0.71893      0.04846      0.10950  1.0000
  C           0.81334      0.27429      0.01624  1.0000
  C           0.64530      0.72896      0.18166  1.0000
  C           0.02476      0.52890      0.51978  1.0000
  C           0.60442      0.56381      0.51496  1.0000
  C           0.43596      0.28087      0.61169  1.0000
  C           0.05525      0.50856      0.40974  1.0000
  C           0.10074      0.00203      0.21491  1.0000
  C           0.22493      0.46386      0.24670  1.0000
  C           0.11209      0.08001      0.61975  1.0000
  C           0.81804      0.23774      0.91424  1.0000
  C           0.41258      0.60463      0.94277  1.0000
  C           0.64950      0.61467      0.85000  1.0000
  C           0.28869      0.35453      0.38740  1.0000
  C           0.46241      0.73885      0.85281  1.0000
  C           0.72083      0.64246      0.77644  1.0000
  C           0.12160      0.41880      0.02017  1.0000
  C           0.40741      0.19876      0.45386  1.0000
  C           0.32223      0.81626      0.62824  1.0000
  C           0.24761      0.32384      0.06373  1.0000
  C           0.08899      0.39302      0.64172  1.0000
  C           0.14134      0.31613      0.02109  1.0000
  C           0.47682      0.59675      0.02654  1.0000
  C           0.58409      0.03291      0.55087  1.0000
  C           0.25371      0.37454      0.65755  1.0000
  C           0.27182      0.99279      0.21624  1.0000
  C           0.08594      0.69369      0.60719  1.0000
  C           0.92099      0.63993      0.64381  1.0000
  C           0.84968      0.28036      0.16168  1.0000
  C           0.72240      0.81687      0.91338  1.0000
  C           0.62380      0.19778      0.51317  1.0000
  C           0.15868      0.89189      0.63923  1.0000
  C           0.35894      0.68219      0.50872  1.0000
  C           0.17045      0.41143      0.70812  1.0000
  C           0.14008      0.94496      0.30084  1.0000
  C           0.33253      0.54265      0.64060  1.0000
  C           0.68704      0.36246      0.33740  1.0000
  C           0.94911      0.85273      0.81741  1.0000
  C           0.19000      0.06657      0.19724  1.0000
  C           0.12091      0.67544      0.71206  1.0000
  C           0.26518      0.00881      0.74675  1.0000
  C           0.65078      0.50880      0.87901  1.0000
  C           0.78228      0.14270      0.46897  1.0000
  C           0.26838      0.93434      0.03040  1.0000
  C           0.28419      0.70474      0.31609  1.0000
  C           0.62715      0.37572      0.48955  1.0000
  C           0.02194      0.98580      0.71137  1.0000
  C           0.30929      0.21855      0.49174  1.0000
  C           0.24053      0.17914      0.42792  1.0000
  C           0.94271      0.12799      0.00111  1.0000
  C           0.79590      0.78467      0.46158  1.0000
  C           0.85526      0.21165      0.74290  1.0000
  C           0.01916      0.24587      0.13719  1.0000
  C           0.53960      0.64846      0.38016  1.0000
  C           0.97745      0.17523      0.91453  1.0000
  C           0.57707      0.94004      0.50734  1.0000
  C           0.38312      0.99870      0.41080  1.0000
  C           0.09113      0.34822      0.85126  1.0000
  C           0.42026      0.42144      0.76998  1.0000
  C           0.73498      0.81365      0.72358  1.0000
  C           0.70212      0.94202      0.61533  1.0000
  C           0.15222      0.99048      0.87833  1.0000
  C           0.40028      0.81140      0.27008  1.0000
  C           0.59419      0.98203      0.24429  1.0000
  C           0.94652      0.43735      0.01718  1.0000
  C           0.61633      0.81522      0.96090  1.0000
  C           0.78297      0.73563      0.93580  1.0000
  C           0.74512      0.31713      0.16692  1.0000
  C           0.92148      0.68393      0.74784  1.0000
  C           0.92393      0.93471      0.95575  1.0000
  C           0.70402      0.29013      0.74084  1.0000
  C           0.48705      0.30380      0.78517  1.0000
  C           0.77868      0.64639      0.87702  1.0000
  C           0.09502      0.03524      0.52602  1.0000
  C           0.12876      0.42761      0.40889  1.0000
  C           0.23695      0.94626      0.58601  1.0000
  C           0.62001      0.26307      0.90500  1.0000
  C           0.80502      0.09541      0.37681  1.0000
  C           0.00559      0.98013      0.52965  1.0000
  C           0.10930      0.81610      0.40714  1.0000
  C           0.53471      0.57597      0.21849  1.0000
  C           0.36456      0.05179      0.19478  1.0000
  C           0.92594      0.66913      0.50062  1.0000
  C           0.23017      0.57529      0.46988  1.0000
  C           0.31039      0.69981      0.21016  1.0000
  C           0.68059      0.09111      0.95757  1.0000
  C           0.19076      0.47208      0.08365  1.0000
  C           0.84044      0.87745      0.24559  1.0000
  C           0.30507      0.37674      0.95266  1.0000
  C           0.65363      0.60428      0.60389  1.0000
  C           0.98320      0.84037      0.61457  1.0000
  C           0.66203      0.71264      0.52195  1.0000
  C           0.68642      0.92964      0.84683  1.0000
  C           0.59272      0.02976      0.96313  1.0000
  C           0.95556      0.16014      0.11188  1.0000
  C           0.16371      0.19178      0.73576  1.0000
  C           0.19273      0.22961      0.14501  1.0000
  C           0.86903      0.43600      0.76469  1.0000
  C           0.46052      0.03011      0.34637  1.0000
  C           0.02650      0.53181      0.75238  1.0000
  C           0.78763      0.54775      0.62138  1.0000
  C           0.18696      0.58892      0.71889  1.0000
  C           0.71365      0.31230      0.02949  1.0000
  C           0.62871      0.56719      0.26161  1.0000
  C           0.46728      0.91870      0.97097  1.0000
  C           0.13404      0.90738      0.15782  1.0000
  C           0.13511      0.63673      0.44400  1.0000
  C           0.49521      0.88904      0.53637  1.0000
  C           0.31360      0.88716      0.55515  1.0000
  C           0.08506      0.90121      0.99169  1.0000
  C           0.77825      0.04386      0.23183  1.0000
  C           0.45879      0.48288      0.84299  1.0000
  C           0.14078      0.18193      0.46219  1.0000
  C           0.48572      0.64096      0.87456  1.0000
  C           0.27741      0.18909      0.98277  1.0000
  C           0.05379      0.80912      0.93883  1.0000
  C           0.59464      0.25837      0.16267  1.0000
  C           0.54035      0.01021      0.75128  1.0000
  C           0.43773      0.01700      0.72156  1.0000
  C           0.41060      0.10245      0.67271  1.0000
  C           0.43439      0.65430      0.65767  1.0000
  C           0.76719      0.71696      0.03793  1.0000
  C           0.08021      0.76581      0.26223  1.0000
  C           0.12436      0.98813      0.68790  1.0000
  C           0.50166      0.17136      0.03767  1.0000
  C           0.55500      0.34106      0.85729  1.0000
  C           0.49790      0.50137      0.63451  1.0000
  C           0.72530      0.97747      0.75151  1.0000
  C           0.30131      0.93115      0.39508  1.0000
  C           0.42252      0.22486      0.97528  1.0000
  C           0.84604      0.26572      0.34034  1.0000
  C           0.93340      0.84249      0.20266  1.0000
  C           0.02597      0.10332      0.83680  1.0000
  C           0.74945      0.61826      0.15611  1.0000
  C           0.49044      0.66913      0.23090  1.0000
  C           0.02528      0.54006      0.22154  1.0000
  C           0.50054      0.84274      0.11324  1.0000
  C           0.64149      0.90139      0.18863  1.0000
  C           0.25651      0.60826      0.36241  1.0000
  C           0.93812      0.54536      0.97715  1.0000
  C           0.19205      0.80421      0.48518  1.0000
  C           0.91560      0.38821      0.21024  1.0000
  C           0.94392      0.36498      0.93044  1.0000
  C           0.75280      0.13657      0.66679  1.0000
  C           0.87540      0.48492      0.62218  1.0000
  C           0.61602      0.69526      0.09067  1.0000
  C           0.98787      0.76396      0.76155  1.0000
  C           0.92537      0.32427      0.63432  1.0000
  C           0.36219      0.46514      0.41447  1.0000
  C           0.97680      0.74218      0.28349  1.0000
  C           0.68462      0.49861      0.60218  1.0000
  C           0.93155      0.98309      0.30271  1.0000
  C           0.95563      0.89077      0.11407  1.0000
  C           0.62771      0.24507      0.67043  1.0000
  C           0.88766      0.80567      0.60704  1.0000
  C           0.20450      0.56983      0.20334  1.0000
  C           0.28010      0.07944      0.83400  1.0000
  C           0.32113      0.08086      0.09849  1.0000
  C           0.57177      0.28866      0.52325  1.0000
  C           0.75166      0.84884      0.26145  1.0000
  C           0.40854      0.19455      0.33801  1.0000
  C           0.48661      0.80060      0.47660  1.0000
  C           0.92236      0.57280      0.30384  1.0000
  C           0.32023      0.23050      0.29022  1.0000
  C           0.33087      0.17947      0.06517  1.0000
  C           0.79834      0.72442      0.29084  1.0000
  C           0.85499      0.04884      0.56026  1.0000
  C           0.87403      0.97200      0.63941  1.0000
  C           0.70418      0.20864      0.44225  1.0000
  C           0.30198      0.30059      0.71477  1.0000
  C           0.35422      0.23296      0.65642  1.0000
  C           0.70276      0.81176      0.17733  1.0000
  C           0.12700      0.14621      0.82805  1.0000
  C           0.74996      0.20011      0.75639  1.0000
  C           0.70223      0.52809      0.19096  1.0000
  C           0.27122      0.78262      0.15157  1.0000
  C           0.32075      0.82122      0.85492  1.0000
  C           0.50933      0.68819      0.05834  1.0000
  C           0.72319      0.96838      0.46853  1.0000
  C           0.01636      0.41216      0.87434  1.0000
  C           0.55474      0.11161      0.49212  1.0000
  C           0.41303      0.72842      0.18972  1.0000
  C           0.04833      0.00371      0.87602  1.0000
  C           0.27599      0.74882      0.04805  1.0000
  C           0.44078      0.01776      0.99235  1.0000
  C           0.89051      0.29161      0.80242  1.0000
  C           0.53992      0.03446      0.12885  1.0000
  C           0.72099      0.65455      0.44059  1.0000
  C           0.86213      0.59565      0.03415  1.0000
  C           0.54957      0.78233      0.79951  1.0000
  C           0.36602      0.79960      0.72838  1.0000
  C           0.79112      0.52161      0.32806  1.0000
  C           0.41001      0.35128      0.53275  1.0000
  C           0.55295      0.84003      0.20238  1.0000
  C           0.99267      0.41074      0.27389  1.0000
  C           0.54625      0.47670      0.90568  1.0000
  C           0.39314      0.17849      0.74385  1.0000
  C           0.75662      0.29173      0.39699  1.0000
  C           0.71307      0.05344      0.32711  1.0000
  C           0.83053      0.63002      0.33786  1.0000
  C           0.68389      0.26631      0.28482  1.0000
  C           0.59735      0.39158      0.38842  1.0000
  C           0.46246      0.29125      0.37208  1.0000
  C           0.08169      0.86504      0.31619  1.0000
  C           0.55138      0.53731      0.71646  1.0000
  C           0.38344      0.88191      0.79279  1.0000
  C           0.08948      0.09605      0.44246  1.0000
  C           0.40244      0.62591      0.75101  1.0000
  C           0.43337      0.59510      0.49992  1.0000
  C           0.87012      0.23765      0.64302  1.0000
  C           0.83582      0.53267      0.43159  1.0000
  C           0.51135      0.11729      0.20150  1.0000
  C           0.42975      0.31054      0.03954  1.0000
  C           0.48632      0.87559      0.79803  1.0000
  C           0.38083      0.76602      0.44555  1.0000
  C           0.43234      0.26706      0.13345  1.0000
  C           0.42482      0.53480      0.10054  1.0000
  C           0.22979      0.80328      0.32345  1.0000
  C           0.74011      0.99758      0.92314  1.0000
  C           0.52043      0.33083      0.96801  1.0000
  C           0.84164      0.08870      0.99456  1.0000
  C           0.60849      0.08415      0.23803  1.0000
  C           0.48441      0.40327      0.22447  1.0000
  C           0.35641      0.28255      0.20693  1.0000
  C           0.97592      0.65268      0.34439  1.0000
  C           0.83239      0.63755      0.45317  1.0000
  C           0.85611      0.18215      0.14198  1.0000
  C           0.20694      0.76563      0.96993  1.0000
  C           0.87027      0.61982      0.82123  1.0000
  C           0.98754      0.11956      0.42597  1.0000
  C           0.59136      0.45677      0.54613  1.0000
  C           0.17016      0.31115      0.21668  1.0000
  C           0.38160      0.73347      0.34662  1.0000
  C           0.75026      0.05646      0.53033  1.0000
  C           0.38737      0.04549      0.51018  1.0000
  C           0.64951      0.23853      0.06442  1.0000
  C           0.85171      0.39292      0.67106  1.0000
  C           0.77962      0.79761      0.10750  1.0000
  C           0.85380      0.74199      0.53742  1.0000
  C           0.82491      0.72695      0.18768  1.0000
  C           0.73927      0.38050      0.46427  1.0000
  C           0.70172      0.14394      0.05175  1.0000
  C           0.55133      0.06651      0.39696  1.0000
  C           0.97985      0.69868      0.11123  1.0000
  C           0.84104      0.32854      0.26186  1.0000
  C           0.02836      0.86684      0.52021  1.0000
  C           0.95138      0.23583      0.35135  1.0000
  C           0.69252      0.65306      0.24357  1.0000
  C           0.73212      0.54640      0.72327  1.0000
  C           0.87997      0.01621      0.39039  1.0000
  C           0.53006      0.63140      0.48226  1.0000
  C           0.96103      0.22005      0.45996  1.0000
  C           0.97470      0.44784      0.78625  1.0000
  C           0.41191      0.56061      0.27510  1.0000
  C           0.94662      0.32085      0.12848  1.0000
  C           0.29111      0.61022      0.16447  1.0000
  C           0.29425      0.17804      0.59068  1.0000
  C           0.47817      0.43814      0.53947  1.0000
  C           0.11989      0.50950      0.70602  1.0000
  C           0.28374      0.41790      0.10287  1.0000
  C           0.38731      0.50693      0.91989  1.0000
  C           0.43997      0.08712      0.90252  1.0000
  C           0.28244      0.47523      0.49779  1.0000
  C           0.41920      0.43271      0.66193  1.0000
  C           0.62323      0.16003      0.88363  1.0000
  C           0.10546      0.73050      0.99250  1.0000
  C           0.37453      0.89168      0.02642  1.0000
  C           0.20008      0.11609      0.98605  1.0000
  C           0.82460      0.43856      0.07771  1.0000
  C           0.71383      0.13558      0.83388  1.0000
  C           0.71978      0.68502      0.61183  1.0000
  C           0.02579      0.67542      0.44440  1.0000
  C           0.16971      0.11833      0.28925  1.0000
  C           0.32655      0.66168      0.95590  1.0000
  C           0.91211      0.68971      0.03611  1.0000
  C           0.68208      0.96847      0.37442  1.0000
  C           0.32232      0.17317      0.81901  1.0000
  C           0.31728      0.56301      0.74837  1.0000
  C           0.08583      0.18940      0.92215  1.0000
  C           0.17797      0.80785      0.17795  1.0000
  C           0.00990      0.93767      0.80272  1.0000
  C           0.67299      0.47653      0.10416  1.0000
  C           0.17765      0.95426      0.78074  1.0000
  C           0.83159      0.95015      0.46467  1.0000
  C           0.56294      0.30012      0.33636  1.0000
  C           0.83420      0.53631      0.76101  1.0000
  C           0.89165      0.10551      0.75685  1.0000
