data_cif

_audit_creation_method             'generated by GULP'

_symmetry_space_group_name_H-M     'P 1'
_symmetry_Int_Tables_number        1
_symmetry_cell_setting             triclinic

_cell_length_a                        7.0903
_cell_length_b                        7.0903
_cell_length_c                        7.0903
_cell_angle_alpha                   90.0000
_cell_angle_beta                    90.0000
_cell_angle_gamma                   90.0000

loop_
_atom_site_label
_atom_site_fract_x
_atom_site_fract_y
_atom_site_fract_z
_atom_site_occupancy
  C           0.08286      0.54642      0.42047  1.0000
  C           0.28517      0.12153      0.11535  1.0000
  C           0.15601      0.39882      0.31563  1.0000
  C           0.89498      0.93666      0.43567  1.0000
  C           0.47079      0.91409      0.97757  1.0000
  C           0.82398      0.47180      0.21188  1.0000
  C           0.97130      0.63430      0.69397  1.0000
  C           0.84519      0.54141      0.56946  1.0000
  C           0.14470      0.35978      0.62395  1.0000
  C           0.39474      0.75342      0.11716  1.0000
  C           0.90324      0.25515      0.74616  1.0000
  C           0.57549      0.93319      0.51941  1.0000
  C           0.44494      0.21939      0.61526  1.0000
  C           0.18354      0.97721      0.81517  1.0000
  C           0.55368      0.58378      0.39554  1.0000
  C           0.99441      0.93993      0.13379  1.0000
  C           0.17403      0.79825      0.89593  1.0000
  C           0.33518      0.70791      0.61394  1.0000
  C           0.75537      0.37395      0.66070  1.0000
  C           0.06839      0.22954      0.30575  1.0000
  C           0.89585      0.15927      0.41048  1.0000
  C           0.87885      0.59578      0.36754  1.0000
  C           0.46335      0.86188      0.65804  1.0000
  C           0.80225      0.26385      0.22379  1.0000
  C           0.70255      0.17854      0.05395  1.0000
  C           0.50672      0.58402      0.05906  1.0000
  C           0.62675      0.26663      0.53455  1.0000
  C           0.63772      0.98712      0.10667  1.0000
  C           0.49078      0.89437      0.25494  1.0000
  C           0.33712      0.06321      0.92400  1.0000
  C           0.82704      0.10706      0.89504  1.0000
  C           0.91053      0.78637      0.79793  1.0000
  C           0.32501      0.37751      0.55295  1.0000
  C           0.22021      0.66974      0.21011  1.0000
  C           0.10813      0.49325      0.77805  1.0000
  C           0.33249      0.07077      0.51854  1.0000
  C           0.20180      0.72358      0.43870  1.0000
  C           0.56301      0.30595      0.94865  1.0000
  C           0.07735      0.13029      0.12248  1.0000
  C           0.77326      0.94424      0.78410  1.0000
  C           0.41274      0.54128      0.51167  1.0000
  C           0.07603      0.87397      0.50169  1.0000
  C           0.06841      0.43100      0.97097  1.0000
  C           0.22022      0.46465      0.12352  1.0000
  C           0.23743      0.65579      0.78491  1.0000
  C           0.91167      0.54323      0.04340  1.0000
  C           0.79904      0.85925      0.12144  1.0000
  C           0.00543      0.22969      0.95653  1.0000
  C           0.80671      0.78700      0.32192  1.0000
  C           0.81654      0.71075      0.97259  1.0000
  C           0.15586      0.02361      0.61960  1.0000
  C           0.45863      0.23021      0.24253  1.0000
  C           0.40675      0.37925      0.08373  1.0000
  C           0.36313      0.04327      0.31766  1.0000
  C           0.63276      0.24410      0.35100  1.0000
  C           0.44612      0.19718      0.81770  1.0000
  C           0.64970      0.44769      0.82482  1.0000
  C           0.74785      0.00201      0.58437  1.0000
  C           0.11775      0.79633      0.08026  1.0000
  C           0.61318      0.50051      0.22872  1.0000
  C           0.60980      0.78028      0.38330  1.0000
  C           0.02604      0.18701      0.59183  1.0000
  C           0.62736      0.63837      0.89880  1.0000
  C           0.58232      0.83584      0.82091  1.0000
