data_cif

_audit_creation_method             'generated by GULP'

_symmetry_space_group_name_H-M     'P 1'
_symmetry_Int_Tables_number        1
_symmetry_cell_setting             triclinic

_cell_length_a                        7.5696
_cell_length_b                        7.5696
_cell_length_c                        7.5696
_cell_angle_alpha                   90.0000
_cell_angle_beta                    90.0000
_cell_angle_gamma                   90.0000

loop_
_atom_site_label
_atom_site_fract_x
_atom_site_fract_y
_atom_site_fract_z
_atom_site_occupancy
  C           0.02510      0.58715      0.36532  1.0000
  C           0.26292      0.10341      0.10473  1.0000
  C           0.10135      0.43824      0.26767  1.0000
  C           0.88717      0.96767      0.44985  1.0000
  C           0.47631      0.91691      0.98538  1.0000
  C           0.79238      0.44712      0.21898  1.0000
  C           0.92448      0.63765      0.71731  1.0000
  C           0.81140      0.55797      0.58921  1.0000
  C           0.13564      0.38113      0.63375  1.0000
  C           0.40448      0.77009      0.11932  1.0000
  C           0.89248      0.25995      0.74523  1.0000
  C           0.57391      0.90272      0.55684  1.0000
  C           0.42887      0.24114      0.63204  1.0000
  C           0.20247      0.98374      0.79711  1.0000
  C           0.52588      0.61175      0.40430  1.0000
  C           0.98550      0.93884      0.11658  1.0000
  C           0.13761      0.82148      0.85774  1.0000
  C           0.35191      0.69001      0.66138  1.0000
  C           0.74131      0.38581      0.68046  1.0000
  C           0.05033      0.25749      0.26361  1.0000
  C           0.93641      0.17607      0.41917  1.0000
  C           0.84478      0.62132      0.41415  1.0000
  C           0.48323      0.81943      0.68786  1.0000
  C           0.79685      0.29418      0.32352  1.0000
  C           0.66543      0.16051      0.01338  1.0000
  C           0.52316      0.60947      0.09066  1.0000
  C           0.60859      0.27844      0.57048  1.0000
  C           0.63274      0.98781      0.11806  1.0000
  C           0.47926      0.91947      0.24931  1.0000
  C           0.34301      0.05767      0.91932  1.0000
  C           0.80928      0.11518      0.88071  1.0000
  C           0.87896      0.76936      0.83945  1.0000
  C           0.31226      0.39518      0.57303  1.0000
  C           0.22616      0.69115      0.12526  1.0000
  C           0.07442      0.50991      0.77679  1.0000
  C           0.32798      0.10711      0.50916  1.0000
  C           0.12586      0.73891      0.42602  1.0000
  C           0.54153      0.31998      0.95724  1.0000
  C           0.06022      0.13161      0.10616  1.0000
  C           0.77415      0.94012      0.79705  1.0000
  C           0.39577      0.56004      0.53034  1.0000
  C           0.07292      0.89583      0.49703  1.0000
  C           0.00355      0.42926      0.95165  1.0000
  C           0.23892      0.50705      0.15499  1.0000
  C           0.20028      0.66996      0.76713  1.0000
  C           0.89894      0.52599      0.08113  1.0000
  C           0.79826      0.86630      0.15644  1.0000
  C           0.98574      0.22408      0.94819  1.0000
  C           0.77864      0.80693      0.35087  1.0000
  C           0.82315      0.70360      0.02456  1.0000
  C           0.16018      0.04301      0.60726  1.0000
  C           0.47456      0.26883      0.27751  1.0000
  C           0.43355      0.40296      0.12280  1.0000
  C           0.36393      0.09123      0.29109  1.0000
  C           0.62627      0.26780      0.39054  1.0000
  C           0.42730      0.21325      0.82923  1.0000
  C           0.64162      0.45858      0.84716  1.0000
  C           0.74404      0.96199      0.60336  1.0000
  C           0.09784      0.80216      0.04159  1.0000
  C           0.62368      0.53906      0.25340  1.0000
  C           0.57407      0.81599      0.38717  1.0000
  C           0.02944      0.21017      0.60181  1.0000
  C           0.64142      0.64100      0.93382  1.0000
  C           0.59089      0.82505      0.85239  1.0000
