data_cif

_audit_creation_method             'generated by GULP'

_symmetry_space_group_name_H-M     'P 1'
_symmetry_Int_Tables_number        1
_symmetry_cell_setting             triclinic

_cell_length_a                        7.6465
_cell_length_b                        7.3759
_cell_length_c                        7.5635
_cell_angle_alpha                   88.5084
_cell_angle_beta                    91.8420
_cell_angle_gamma                   87.6419

loop_
_atom_site_label
_atom_site_fract_x
_atom_site_fract_y
_atom_site_fract_z
_atom_site_occupancy
  C           0.03578      0.52617      0.33989  1.0000
  C           0.23197      0.05959      0.07106  1.0000
  C           0.08772      0.37009      0.24149  1.0000
  C           0.85187      0.90727      0.41900  1.0000
  C           0.44076      0.86915      0.94766  1.0000
  C           0.79267      0.42373      0.21499  1.0000
  C           0.89897      0.59157      0.68321  1.0000
  C           0.79065      0.51145      0.54926  1.0000
  C           0.11015      0.34178      0.59737  1.0000
  C           0.37264      0.71610      0.08936  1.0000
  C           0.86381      0.20362      0.70740  1.0000
  C           0.54661      0.85539      0.51172  1.0000
  C           0.40161      0.19819      0.58623  1.0000
  C           0.17344      0.93887      0.76671  1.0000
  C           0.50262      0.55879      0.36760  1.0000
  C           0.95023      0.89612      0.08225  1.0000
  C           0.12203      0.77331      0.83457  1.0000
  C           0.27623      0.68020      0.56415  1.0000
  C           0.70823      0.34225      0.64088  1.0000
  C           0.02019      0.19482      0.24132  1.0000
  C           0.91244      0.11261      0.39180  1.0000
  C           0.83613      0.56325      0.36264  1.0000
  C           0.43737      0.78430      0.63704  1.0000
  C           0.76792      0.23453      0.29149  1.0000
  C           0.64600      0.11655      0.97762  1.0000
  C           0.48858      0.55077      0.04959  1.0000
  C           0.57944      0.24019      0.52601  1.0000
  C           0.60051      0.94447      0.07383  1.0000
  C           0.45831      0.86733      0.20999  1.0000
  C           0.30676      0.01905      0.88229  1.0000
  C           0.78554      0.06497      0.85008  1.0000
  C           0.84443      0.72363      0.80320  1.0000
  C           0.28021      0.35799      0.52971  1.0000
  C           0.19484      0.64563      0.15080  1.0000
  C           0.05762      0.46309      0.74316  1.0000
  C           0.30230      0.05618      0.47065  1.0000
  C           0.15791      0.69077      0.36855  1.0000
  C           0.51415      0.26843      0.90836  1.0000
  C           0.03084      0.08075      0.07474  1.0000
  C           0.73266      0.89678      0.75772  1.0000
  C           0.35914      0.51373      0.47123  1.0000
  C           0.05280      0.86009      0.45326  1.0000
  C           0.03434      0.38778      0.93381  1.0000
  C           0.19937      0.42894      0.07927  1.0000
  C           0.16153      0.63647      0.72181  1.0000
  C           0.87956      0.47797      0.04876  1.0000
  C           0.76889      0.81610      0.11209  1.0000
  C           0.95846      0.18985      0.91470  1.0000
  C           0.76080      0.75479      0.30747  1.0000
  C           0.78459      0.65271      0.97891  1.0000
  C           0.14053      0.00009      0.57189  1.0000
  C           0.44937      0.21468      0.23007  1.0000
  C           0.40002      0.34764      0.06940  1.0000
  C           0.34265      0.03981      0.26152  1.0000
  C           0.59774      0.22074      0.34731  1.0000
  C           0.39246      0.16753      0.78531  1.0000
  C           0.60703      0.41408      0.80680  1.0000
  C           0.70783      0.92296      0.56384  1.0000
  C           0.07129      0.75900      0.01702  1.0000
  C           0.57988      0.46613      0.21982  1.0000
  C           0.56245      0.75860      0.35028  1.0000
  C           0.00023      0.17335      0.57146  1.0000
  C           0.60565      0.59279      0.89854  1.0000
  C           0.55154      0.77931      0.80829  1.0000
