data_cif

_audit_creation_method             'generated by GULP'

_symmetry_space_group_name_H-M     'P 1'
_symmetry_Int_Tables_number        1
_symmetry_cell_setting             triclinic

_cell_length_a                        7.5044
_cell_length_b                        7.5044
_cell_length_c                        7.5044
_cell_angle_alpha                   90.0000
_cell_angle_beta                    90.0000
_cell_angle_gamma                   90.0000

loop_
_atom_site_label
_atom_site_fract_x
_atom_site_fract_y
_atom_site_fract_z
_atom_site_occupancy
  C           0.08286      0.54642      0.42047  1.0000
  C           0.30047      0.09848      0.15805  1.0000
  C           0.13543      0.39732      0.32140  1.0000
  C           0.90549      0.92592      0.50053  1.0000
  C           0.49647      0.88833      0.03325  1.0000
  C           0.81678      0.44127      0.29023  1.0000
  C           0.94577      0.60782      0.76178  1.0000
  C           0.84032      0.51959      0.62982  1.0000
  C           0.15289      0.34816      0.68879  1.0000
  C           0.41736      0.73336      0.16812  1.0000
  C           0.91295      0.22237      0.78968  1.0000
  C           0.59466      0.87397      0.59391  1.0000
  C           0.45071      0.21282      0.66697  1.0000
  C           0.22292      0.95992      0.85544  1.0000
  C           0.54479      0.57568      0.44749  1.0000
  C           0.01188      0.92339      0.16801  1.0000
  C           0.17045      0.79309      0.92189  1.0000
  C           0.32404      0.69235      0.65193  1.0000
  C           0.76267      0.34747      0.71316  1.0000
  C           0.06492      0.22602      0.31670  1.0000
  C           0.93902      0.13723      0.45296  1.0000
  C           0.88299      0.57316      0.43988  1.0000
  C           0.48338      0.79928      0.72141  1.0000
  C           0.80022      0.23514      0.30227  1.0000
  C           0.72027      0.15194      0.11196  1.0000
  C           0.52947      0.57094      0.12316  1.0000
  C           0.62395      0.26426      0.58237  1.0000
  C           0.66150      0.95800      0.15951  1.0000
  C           0.51070      0.87520      0.29682  1.0000
  C           0.36817      0.03474      0.97217  1.0000
  C           0.83801      0.08497      0.94030  1.0000
  C           0.88702      0.74130      0.87849  1.0000
  C           0.32992      0.36922      0.62500  1.0000
  C           0.23491      0.66593      0.23720  1.0000
  C           0.09782      0.48208      0.82823  1.0000
  C           0.35730      0.05943      0.56162  1.0000
  C           0.20556      0.70938      0.45879  1.0000
  C           0.57783      0.28365      0.00020  1.0000
  C           0.09625      0.11134      0.15485  1.0000
  C           0.78330      0.91631      0.84570  1.0000
  C           0.40636      0.52690      0.56154  1.0000
  C           0.09469      0.86520      0.54826  1.0000
  C           0.07223      0.41282      0.01768  1.0000
  C           0.23824      0.45541      0.15196  1.0000
  C           0.20374      0.65442      0.80742  1.0000
  C           0.91883      0.50453      0.12622  1.0000
  C           0.82805      0.83342      0.19382  1.0000
  C           0.01756      0.21295      0.99257  1.0000
  C           0.81271      0.76957      0.38937  1.0000
  C           0.83594      0.67374      0.06261  1.0000
  C           0.18506      0.00943      0.65917  1.0000
  C           0.45763      0.21681      0.27409  1.0000
  C           0.43141      0.37837      0.13419  1.0000
  C           0.38775      0.02806      0.35661  1.0000
  C           0.62012      0.24347      0.40138  1.0000
  C           0.46729      0.17444      0.86958  1.0000
  C           0.67106      0.42545      0.88509  1.0000
  C           0.76001      0.94256      0.64825  1.0000
  C           0.13072      0.78695      0.10554  1.0000
  C           0.61463      0.48811      0.29277  1.0000
  C           0.60935      0.77025      0.43243  1.0000
  C           0.04738      0.17081      0.64076  1.0000
  C           0.65462      0.61240      0.96950  1.0000
  C           0.59700      0.79571      0.88807  1.0000
