data_cif

_audit_creation_method             'generated by GULP'

_symmetry_space_group_name_H-M     'P 1'
_symmetry_Int_Tables_number        1
_symmetry_cell_setting             triclinic

_cell_length_a                        7.0903
_cell_length_b                        7.0903
_cell_length_c                        7.0903
_cell_angle_alpha                   90.0000
_cell_angle_beta                    90.0000
_cell_angle_gamma                   90.0000

loop_
_atom_site_label
_atom_site_fract_x
_atom_site_fract_y
_atom_site_fract_z
_atom_site_occupancy
  C           0.02788      0.58841      0.36513  1.0000
  C           0.25257      0.01811      0.11354  1.0000
  C           0.11112      0.47348      0.26491  1.0000
  C           0.89559      0.93794      0.43550  1.0000
  C           0.51522      0.91950      0.99664  1.0000
  C           0.82946      0.48620      0.21989  1.0000
  C           0.94739      0.60074      0.70316  1.0000
  C           0.83589      0.48977      0.54373  1.0000
  C           0.12510      0.36557      0.64666  1.0000
  C           0.44390      0.78197      0.11853  1.0000
  C           0.86156      0.24038      0.72211  1.0000
  C           0.57349      0.91313      0.55563  1.0000
  C           0.38241      0.24493      0.62185  1.0000
  C           0.24914      0.89232      0.78174  1.0000
  C           0.57852      0.62751      0.38732  1.0000
  C           0.97144      0.95731      0.08648  1.0000
  C           0.17758      0.74100      0.85583  1.0000
  C           0.34759      0.68257      0.62729  1.0000
  C           0.71887      0.34698      0.65128  1.0000
  C           0.07818      0.25827      0.29446  1.0000
  C           0.92261      0.13198      0.40043  1.0000
  C           0.86827      0.59622      0.39423  1.0000
  C           0.56655      0.77294      0.67109  1.0000
  C           0.79997      0.30068      0.33805  1.0000
  C           0.71558      0.19326      0.04337  1.0000
  C           0.48200      0.58507      0.08098  1.0000
  C           0.57445      0.25689      0.61021  1.0000
  C           0.65986      0.99491      0.05771  1.0000
  C           0.55907      0.97913      0.25964  1.0000
  C           0.35481      0.96350      0.92591  1.0000
  C           0.85445      0.13245      0.86507  1.0000
  C           0.92707      0.73146      0.81246  1.0000
  C           0.29164      0.39750      0.55414  1.0000
  C           0.28085      0.74902      0.18157  1.0000
  C           0.12117      0.47881      0.80344  1.0000
  C           0.29625      0.08022      0.50252  1.0000
  C           0.22181      0.72326      0.44074  1.0000
  C           0.52572      0.34746      0.95745  1.0000
  C           0.04753      0.13590      0.11586  1.0000
  C           0.81991      0.94312      0.81238  1.0000
  C           0.41723      0.55507      0.52123  1.0000
  C           0.08225      0.89400      0.47610  1.0000
  C           0.06165      0.42650      0.96017  1.0000
  C           0.20280      0.54099      0.11624  1.0000
  C           0.27725      0.55103      0.83620  1.0000
  C           0.90689      0.52500      0.02613  1.0000
  C           0.81832      0.85401      0.06104  1.0000
  C           0.05386      0.23000      0.93491  1.0000
  C           0.80184      0.83156      0.30979  1.0000
  C           0.79496      0.65937      0.98687  1.0000
  C           0.15569      0.04797      0.61216  1.0000
  C           0.41877      0.27955      0.23813  1.0000
  C           0.36525      0.43143      0.06499  1.0000
  C           0.33716      0.09427      0.29752  1.0000
  C           0.57098      0.21235      0.40445  1.0000
  C           0.39836      0.17901      0.82410  1.0000
  C           0.64341      0.44898      0.82679  1.0000
  C           0.78105      0.92783      0.60230  1.0000
  C           0.14322      0.82241      0.05720  1.0000
  C           0.62868      0.53627      0.26569  1.0000
  C           0.58519      0.82126      0.38075  1.0000
  C           0.00587      0.16885      0.60711  1.0000
  C           0.64389      0.62820      0.91408  1.0000
  C           0.62318      0.83644      0.83332  1.0000
