data_cif

_audit_creation_method             'generated by GULP'

_symmetry_space_group_name_H-M     'P 1'
_symmetry_Int_Tables_number        1
_symmetry_cell_setting             triclinic

_cell_length_a                        7.5696
_cell_length_b                        7.5696
_cell_length_c                        7.5696
_cell_angle_alpha                   90.0000
_cell_angle_beta                    90.0000
_cell_angle_gamma                   90.0000

loop_
_atom_site_label
_atom_site_fract_x
_atom_site_fract_y
_atom_site_fract_z
_atom_site_occupancy
  C           0.02788      0.58841      0.36513  1.0000
  C           0.26801      0.10045      0.10847  1.0000
  C           0.10433      0.43899      0.26907  1.0000
  C           0.88038      0.96684      0.45251  1.0000
  C           0.47992      0.91987      0.98800  1.0000
  C           0.79032      0.44674      0.21860  1.0000
  C           0.92477      0.63875      0.71533  1.0000
  C           0.80958      0.55980      0.58763  1.0000
  C           0.13133      0.38109      0.63590  1.0000
  C           0.40816      0.76642      0.11697  1.0000
  C           0.86859      0.25646      0.72852  1.0000
  C           0.57342      0.90173      0.55792  1.0000
  C           0.42211      0.24376      0.62696  1.0000
  C           0.20045      0.98369      0.79819  1.0000
  C           0.52561      0.61009      0.40607  1.0000
  C           0.99247      0.93832      0.12324  1.0000
  C           0.13588      0.82110      0.85857  1.0000
  C           0.35022      0.69158      0.66339  1.0000
  C           0.72802      0.39377      0.67593  1.0000
  C           0.05175      0.25806      0.27069  1.0000
  C           0.93928      0.17214      0.42040  1.0000
  C           0.84557      0.61789      0.41190  1.0000
  C           0.48240      0.81983      0.69069  1.0000
  C           0.79756      0.29575      0.32584  1.0000
  C           0.67734      0.16779      0.01405  1.0000
  C           0.52390      0.60624      0.08751  1.0000
  C           0.59964      0.29026      0.56368  1.0000
  C           0.63857      0.99487      0.11416  1.0000
  C           0.48456      0.91763      0.25051  1.0000
  C           0.34113      0.05808      0.92008  1.0000
  C           0.82276      0.12548      0.88068  1.0000
  C           0.87281      0.76957      0.83719  1.0000
  C           0.30554      0.39874      0.57293  1.0000
  C           0.23068      0.68795      0.12389  1.0000
  C           0.07052      0.50742      0.77900  1.0000
  C           0.32564      0.10153      0.50796  1.0000
  C           0.12434      0.74219      0.42477  1.0000
  C           0.54424      0.31693      0.95281  1.0000
  C           0.07121      0.12984      0.11621  1.0000
  C           0.77714      0.94748      0.79862  1.0000
  C           0.39343      0.56077      0.53295  1.0000
  C           0.06884      0.89729      0.49923  1.0000
  C           0.99887      0.41866      0.95182  1.0000
  C           0.24240      0.50147      0.15672  1.0000
  C           0.19640      0.67124      0.76801  1.0000
  C           0.89475      0.51541      0.07675  1.0000
  C           0.80396      0.86427      0.15390  1.0000
  C           0.99285      0.22549      0.95766  1.0000
  C           0.77872      0.80728      0.34818  1.0000
  C           0.82657      0.70017      0.02348  1.0000
  C           0.15805      0.04271      0.60805  1.0000
  C           0.47835      0.26246      0.27100  1.0000
  C           0.43764      0.40047      0.12026  1.0000
  C           0.36970      0.08643      0.29519  1.0000
  C           0.62551      0.26660      0.38658  1.0000
  C           0.42294      0.21329      0.82833  1.0000
  C           0.64019      0.46072      0.84546  1.0000
  C           0.74016      0.97042      0.60313  1.0000
  C           0.10260      0.80242      0.04436  1.0000
  C           0.62070      0.53636      0.25364  1.0000
  C           0.57709      0.81084      0.38970  1.0000
  C           0.02450      0.21326      0.60643  1.0000
  C           0.64424      0.64402      0.93187  1.0000
  C           0.59422      0.82774      0.85240  1.0000
