data_cif

_audit_creation_method             'generated by GULP'

_symmetry_space_group_name_H-M     'P 1'
_symmetry_Int_Tables_number        1
_symmetry_cell_setting             triclinic

_cell_length_a                        7.5738
_cell_length_b                        7.5738
_cell_length_c                        7.5738
_cell_angle_alpha                   90.0000
_cell_angle_beta                    90.0000
_cell_angle_gamma                   90.0000

loop_
_atom_site_label
_atom_site_fract_x
_atom_site_fract_y
_atom_site_fract_z
_atom_site_occupancy
  C           0.02510      0.58715      0.36532  1.0000
  C           0.26196      0.10235      0.10788  1.0000
  C           0.10008      0.43846      0.26770  1.0000
  C           0.87896      0.96682      0.45280  1.0000
  C           0.47697      0.91740      0.98874  1.0000
  C           0.78699      0.44715      0.22014  1.0000
  C           0.92304      0.63752      0.71705  1.0000
  C           0.81017      0.55456      0.59027  1.0000
  C           0.13179      0.38004      0.63871  1.0000
  C           0.40427      0.76455      0.11761  1.0000
  C           0.88970      0.25698      0.74661  1.0000
  C           0.56991      0.90062      0.55740  1.0000
  C           0.42565      0.24087      0.63244  1.0000
  C           0.20002      0.98373      0.79859  1.0000
  C           0.52306      0.60854      0.40676  1.0000
  C           0.98772      0.93820      0.12130  1.0000
  C           0.13468      0.82155      0.85821  1.0000
  C           0.34775      0.69011      0.66249  1.0000
  C           0.73819      0.38418      0.68343  1.0000
  C           0.04646      0.25811      0.26630  1.0000
  C           0.93608      0.17334      0.41985  1.0000
  C           0.84330      0.61588      0.41496  1.0000
  C           0.47847      0.81897      0.68989  1.0000
  C           0.79412      0.29678      0.32744  1.0000
  C           0.66944      0.16103      0.01733  1.0000
  C           0.52034      0.60465      0.08834  1.0000
  C           0.60608      0.28054      0.57144  1.0000
  C           0.63389      0.98952      0.11902  1.0000
  C           0.47916      0.91609      0.25129  1.0000
  C           0.33939      0.05668      0.92307  1.0000
  C           0.81028      0.11302      0.88412  1.0000
  C           0.86795      0.76749      0.83809  1.0000
  C           0.30747      0.39532      0.57581  1.0000
  C           0.22662      0.68703      0.12341  1.0000
  C           0.07161      0.51004      0.77940  1.0000
  C           0.32619      0.10215      0.50958  1.0000
  C           0.12197      0.74110      0.42381  1.0000
  C           0.54265      0.31479      0.95710  1.0000
  C           0.06342      0.13137      0.10925  1.0000
  C           0.76965      0.94218      0.79681  1.0000
  C           0.39275      0.55823      0.53420  1.0000
  C           0.06818      0.89653      0.49872  1.0000
  C           0.00170      0.42884      0.95485  1.0000
  C           0.23847      0.50065      0.15615  1.0000
  C           0.19565      0.67208      0.76816  1.0000
  C           0.89295      0.51981      0.08184  1.0000
  C           0.79998      0.86303      0.15541  1.0000
  C           0.98583      0.22201      0.94925  1.0000
  C           0.77560      0.80536      0.35014  1.0000
  C           0.82157      0.70047      0.02536  1.0000
  C           0.15898      0.04153      0.60795  1.0000
  C           0.47604      0.26367      0.27663  1.0000
  C           0.43468      0.39910      0.12278  1.0000
  C           0.36566      0.08663      0.29464  1.0000
  C           0.62416      0.26627      0.39170  1.0000
  C           0.42229      0.21134      0.83223  1.0000
  C           0.64382      0.45572      0.85033  1.0000
  C           0.73712      0.96771      0.60266  1.0000
  C           0.09921      0.80247      0.04361  1.0000
  C           0.61773      0.53611      0.25443  1.0000
  C           0.57299      0.80918      0.39000  1.0000
  C           0.02700      0.20841      0.60234  1.0000
  C           0.64077      0.64150      0.93227  1.0000
  C           0.58856      0.82465      0.85235  1.0000
