data_cif

_audit_creation_method             'generated by GULP'

_symmetry_space_group_name_H-M     'P 1'
_symmetry_Int_Tables_number        1
_symmetry_cell_setting             triclinic

_cell_length_a                        7.6441
_cell_length_b                        7.3736
_cell_length_c                        7.5611
_cell_angle_alpha                   88.5084
_cell_angle_beta                    91.8420
_cell_angle_gamma                   87.6419

loop_
_atom_site_label
_atom_site_fract_x
_atom_site_fract_y
_atom_site_fract_z
_atom_site_occupancy
  C           0.03578      0.52617      0.33989  1.0000
  C           0.22959      0.06247      0.07068  1.0000
  C           0.08674      0.37258      0.24154  1.0000
  C           0.84989      0.90836      0.42246  1.0000
  C           0.44128      0.87372      0.94759  1.0000
  C           0.78744      0.42953      0.21862  1.0000
  C           0.90196      0.59511      0.68444  1.0000
  C           0.79225      0.51099      0.55395  1.0000
  C           0.10933      0.34137      0.59745  1.0000
  C           0.36856      0.72010      0.08727  1.0000
  C           0.85924      0.20977      0.70827  1.0000
  C           0.54410      0.86131      0.50888  1.0000
  C           0.39981      0.19997      0.58587  1.0000
  C           0.16958      0.94644      0.76517  1.0000
  C           0.49850      0.56248      0.36589  1.0000
  C           0.95081      0.89842      0.07928  1.0000
  C           0.11699      0.77903      0.83130  1.0000
  C           0.27357      0.68623      0.56368  1.0000
  C           0.70732      0.34464      0.64241  1.0000
  C           0.01961      0.19734      0.23935  1.0000
  C           0.91496      0.11377      0.39249  1.0000
  C           0.83763      0.56486      0.36602  1.0000
  C           0.43298      0.78965      0.63410  1.0000
  C           0.76927      0.24005      0.29299  1.0000
  C           0.64393      0.11991      0.97949  1.0000
  C           0.48573      0.55449      0.04794  1.0000
  C           0.57720      0.24141      0.52641  1.0000
  C           0.60142      0.94508      0.07387  1.0000
  C           0.45630      0.87352      0.20987  1.0000
  C           0.30505      0.02222      0.88508  1.0000
  C           0.78388      0.07002      0.85019  1.0000
  C           0.84515      0.72613      0.80367  1.0000
  C           0.27725      0.35965      0.52601  1.0000
  C           0.19224      0.65136      0.14702  1.0000
  C           0.05980      0.46619      0.74516  1.0000
  C           0.29940      0.05908      0.46883  1.0000
  C           0.15812      0.69064      0.36530  1.0000
  C           0.51081      0.27095      0.90931  1.0000
  C           0.03026      0.08469      0.07476  1.0000
  C           0.73135      0.89816      0.76024  1.0000
  C           0.35453      0.51885      0.46770  1.0000
  C           0.05053      0.85668      0.45703  1.0000
  C           0.03271      0.39102      0.93590  1.0000
  C           0.19835      0.43240      0.08003  1.0000
  C           0.15663      0.64112      0.71844  1.0000
  C           0.87818      0.48202      0.05085  1.0000
  C           0.77067      0.81605      0.11188  1.0000
  C           0.95657      0.19536      0.91382  1.0000
  C           0.76058      0.75783      0.30907  1.0000
  C           0.78446      0.65237      0.97935  1.0000
  C           0.13486      0.00161      0.56736  1.0000
  C           0.44934      0.22195      0.23052  1.0000
  C           0.39879      0.35313      0.06882  1.0000
  C           0.34068      0.04791      0.25694  1.0000
  C           0.59836      0.22142      0.34680  1.0000
  C           0.39129      0.17098      0.78662  1.0000
  C           0.60819      0.41517      0.80446  1.0000
  C           0.70698      0.92538      0.56405  1.0000
  C           0.07055      0.76292      0.01252  1.0000
  C           0.57895      0.47141      0.21893  1.0000
  C           0.55847      0.76052      0.34843  1.0000
  C           0.99868      0.17640      0.57262  1.0000
  C           0.60280      0.59661      0.89623  1.0000
  C           0.54576      0.78570      0.80483  1.0000
