data_cif

_audit_creation_method             'generated by GULP'

_symmetry_space_group_name_H-M     'P 1'
_symmetry_Int_Tables_number        1
_symmetry_cell_setting             triclinic

_cell_length_a                        7.4989
_cell_length_b                        7.4989
_cell_length_c                        7.4989
_cell_angle_alpha                   90.0000
_cell_angle_beta                    90.0000
_cell_angle_gamma                   90.0000

loop_
_atom_site_label
_atom_site_fract_x
_atom_site_fract_y
_atom_site_fract_z
_atom_site_occupancy
  C           0.03578      0.52617      0.33989  1.0000
  C           0.23951      0.06054      0.07235  1.0000
  C           0.08939      0.37444      0.24257  1.0000
  C           0.85842      0.90936      0.41532  1.0000
  C           0.44546      0.86455      0.94964  1.0000
  C           0.78463      0.42676      0.21255  1.0000
  C           0.90510      0.58669      0.68222  1.0000
  C           0.79314      0.50223      0.55215  1.0000
  C           0.11325      0.32973      0.60537  1.0000
  C           0.36944      0.71179      0.08859  1.0000
  C           0.86665      0.20761      0.71156  1.0000
  C           0.54679      0.85833      0.51193  1.0000
  C           0.40321      0.18975      0.58900  1.0000
  C           0.17167      0.93288      0.77112  1.0000
  C           0.50260      0.55976      0.36675  1.0000
  C           0.95707      0.89800      0.08360  1.0000
  C           0.12128      0.76698      0.84002  1.0000
  C           0.28034      0.67061      0.57076  1.0000
  C           0.71499      0.33288      0.64175  1.0000
  C           0.02920      0.19781      0.23977  1.0000
  C           0.91344      0.11684      0.38894  1.0000
  C           0.83472      0.56303      0.36296  1.0000
  C           0.43822      0.78035      0.63951  1.0000
  C           0.77298      0.23969      0.28359  1.0000
  C           0.64738      0.11431      0.98295  1.0000
  C           0.48278      0.54890      0.04671  1.0000
  C           0.58362      0.22934      0.52445  1.0000
  C           0.60605      0.93927      0.07734  1.0000
  C           0.45737      0.86403      0.21394  1.0000
  C           0.31369      0.00922      0.88750  1.0000
  C           0.79117      0.06387      0.85067  1.0000
  C           0.84861      0.72150      0.79852  1.0000
  C           0.28893      0.34876      0.54021  1.0000
  C           0.18865      0.64401      0.15633  1.0000
  C           0.05700      0.45846      0.74755  1.0000
  C           0.30565      0.04555      0.47585  1.0000
  C           0.16052      0.68873      0.37823  1.0000
  C           0.51792      0.26138      0.91285  1.0000
  C           0.03865      0.08405      0.07393  1.0000
  C           0.74151      0.89223      0.75938  1.0000
  C           0.36504      0.50717      0.47933  1.0000
  C           0.04948      0.84773      0.46170  1.0000
  C           0.03054      0.38851      0.93788  1.0000
  C           0.20050      0.43107      0.07641  1.0000
  C           0.16376      0.62896      0.72838  1.0000
  C           0.87795      0.48522      0.04497  1.0000
  C           0.77326      0.81401      0.11109  1.0000
  C           0.96694      0.18958      0.91542  1.0000
  C           0.76238      0.75470      0.30757  1.0000
  C           0.78784      0.65172      0.97866  1.0000
  C           0.13665      0.99012      0.57752  1.0000
  C           0.44522      0.21260      0.22992  1.0000
  C           0.39990      0.34209      0.06922  1.0000
  C           0.34026      0.03139      0.26260  1.0000
  C           0.59868      0.21637      0.34164  1.0000
  C           0.40083      0.15646      0.78856  1.0000
  C           0.61557      0.40477      0.80650  1.0000
  C           0.71458      0.92120      0.56410  1.0000
  C           0.07772      0.76107      0.02398  1.0000
  C           0.57926      0.47343      0.21426  1.0000
  C           0.55826      0.75729      0.34919  1.0000
  C           0.00560      0.15803      0.56990  1.0000
  C           0.60527      0.58968      0.89129  1.0000
  C           0.55222      0.77443      0.80620  1.0000
