data_cif

_audit_creation_method             'generated by GULP'

_symmetry_space_group_name_H-M     'P 1'
_symmetry_Int_Tables_number        1
_symmetry_cell_setting             triclinic

_cell_length_a                        7.6889
_cell_length_b                        7.6889
_cell_length_c                        7.6889
_cell_angle_alpha                   90.0000
_cell_angle_beta                    90.0000
_cell_angle_gamma                   90.0000

loop_
_atom_site_label
_atom_site_fract_x
_atom_site_fract_y
_atom_site_fract_z
_atom_site_occupancy
  C           0.47604      0.51988      0.06502  1.0000
  C           0.40872      0.73697      0.30920  1.0000
  C           0.29062      0.26237      0.91043  1.0000
  C           0.10391      0.00811      0.61772  1.0000
  C           0.95653      0.85540      0.88353  1.0000
  C           0.79576      0.47640      0.58374  1.0000
  C           0.61645      0.41233      0.68013  1.0000
  C           0.78750      0.71318      0.34000  1.0000
  C           0.88498      0.24300      0.32806  1.0000
  C           0.68884      0.15846      0.14377  1.0000
  C           0.86956      0.03502      0.36325  1.0000
  C           0.95030      0.93150      0.52327  1.0000
  C           0.51719      0.05790      0.15246  1.0000
  C           0.54998      0.97825      0.49848  1.0000
  C           0.46900      0.32945      0.00129  1.0000
  C           0.95039      0.34915      0.48987  1.0000
  C           0.15941      0.41929      0.83251  1.0000
  C           0.82980      0.73520      0.81521  1.0000
  C           0.91088      0.94643      0.03915  1.0000
  C           0.14357      0.91597      0.79879  1.0000
  C           0.86979      0.64828      0.65778  1.0000
  C           0.89039      0.12346      0.72971  1.0000
  C           0.49721      0.59628      0.41404  1.0000
  C           0.65112      0.70477      0.88467  1.0000
  C           0.64063      0.58616      0.02745  1.0000
  C           0.78924      0.97568      0.71947  1.0000
  C           0.47461      0.45454      0.57742  1.0000
  C           0.35952      0.63795      0.14148  1.0000
  C           0.59024      0.95358      0.69371  1.0000
  C           0.71618      0.33867      0.23430  1.0000
  C           0.01064      0.19875      0.15640  1.0000
  C           0.97111      0.39394      0.89749  1.0000
  C           0.50319      0.78867      0.78890  1.0000
  C           0.85128      0.13485      0.03737  1.0000
  C           0.35415      0.17670      0.71328  1.0000
  C           0.11433      0.47748      0.45025  1.0000
  C           0.18569      0.16882      0.08225  1.0000
  C           0.28176      0.39746      0.51824  1.0000
  C           0.10064      0.67243      0.42247  1.0000
  C           0.93290      0.49751      0.03961  1.0000
  C           0.83529      0.24326      0.87436  1.0000
  C           0.37711      0.21512      0.16927  1.0000
  C           0.39338      0.11463      0.51050  1.0000
  C           0.97786      0.71007      0.26903  1.0000
  C           0.39643      0.27694      0.37116  1.0000
  C           0.55980      0.39800      0.34014  1.0000
  C           0.30625      0.76468      0.78976  1.0000
  C           0.92301      0.89603      0.21416  1.0000
  C           0.76670      0.48398      0.10774  1.0000
  C           0.25314      0.80322      0.41643  1.0000
  C           0.70396      0.55237      0.41301  1.0000
  C           0.95526      0.74839      0.53523  1.0000
  C           0.22943      0.60544      0.86738  1.0000
  C           0.04031      0.61576      0.11618  1.0000
  C           0.62565      0.28528      0.84894  1.0000
  C           0.43768      0.01524      0.97135  1.0000
  C           0.51946      0.91136      0.28954  1.0000
  C           0.20442      0.64082      0.05015  1.0000
  C           0.03629      0.20888      0.61627  1.0000
  C           0.25594      0.96033      0.49525  1.0000
  C           0.71275      0.89382      0.37377  1.0000
  C           0.24178      0.01111      0.95559  1.0000
  C           0.51576      0.10121      0.81099  1.0000
  C           0.19926      0.30359      0.67191  1.0000
