data_cif

_audit_creation_method             'generated by GULP'

_symmetry_space_group_name_H-M     'P 1'
_symmetry_Int_Tables_number        1
_symmetry_cell_setting             triclinic

_cell_length_a                        7.6343
_cell_length_b                        7.6343
_cell_length_c                        7.6343
_cell_angle_alpha                   90.0000
_cell_angle_beta                    90.0000
_cell_angle_gamma                   90.0000

loop_
_atom_site_label
_atom_site_fract_x
_atom_site_fract_y
_atom_site_fract_z
_atom_site_occupancy
  C           0.02510      0.58715      0.36532  1.0000
  C           0.26080      0.10210      0.10674  1.0000
  C           0.09998      0.43945      0.26710  1.0000
  C           0.87921      0.96726      0.45264  1.0000
  C           0.47779      0.91601      0.98904  1.0000
  C           0.78598      0.44823      0.22139  1.0000
  C           0.91989      0.63447      0.71764  1.0000
  C           0.81036      0.55164      0.58938  1.0000
  C           0.13257      0.38040      0.63971  1.0000
  C           0.40561      0.76362      0.11744  1.0000
  C           0.88851      0.25456      0.74597  1.0000
  C           0.57219      0.89625      0.55700  1.0000
  C           0.42538      0.24079      0.63201  1.0000
  C           0.20224      0.98222      0.79768  1.0000
  C           0.52183      0.60771      0.40608  1.0000
  C           0.98878      0.93738      0.11947  1.0000
  C           0.13839      0.82058      0.85827  1.0000
  C           0.34968      0.68840      0.66322  1.0000
  C           0.73743      0.38242      0.68312  1.0000
  C           0.04386      0.25997      0.26488  1.0000
  C           0.93610      0.17458      0.42002  1.0000
  C           0.84382      0.61457      0.41519  1.0000
  C           0.48077      0.81585      0.68918  1.0000
  C           0.79419      0.29870      0.32875  1.0000
  C           0.66846      0.15824      0.01496  1.0000
  C           0.52042      0.60387      0.08851  1.0000
  C           0.60523      0.28049      0.57093  1.0000
  C           0.63531      0.98742      0.11783  1.0000
  C           0.48099      0.91562      0.24972  1.0000
  C           0.34018      0.05563      0.92305  1.0000
  C           0.80926      0.11086      0.88237  1.0000
  C           0.86302      0.76358      0.83735  1.0000
  C           0.30772      0.39542      0.57738  1.0000
  C           0.22829      0.68711      0.12355  1.0000
  C           0.07130      0.51157      0.77898  1.0000
  C           0.32583      0.10314      0.50849  1.0000
  C           0.11918      0.74189      0.42400  1.0000
  C           0.54274      0.31370      0.95658  1.0000
  C           0.06222      0.13245      0.10812  1.0000
  C           0.76914      0.94004      0.79591  1.0000
  C           0.39298      0.55739      0.53464  1.0000
  C           0.06781      0.89745      0.49794  1.0000
  C           0.99868      0.42904      0.95426  1.0000
  C           0.23972      0.50132      0.15776  1.0000
  C           0.19833      0.67083      0.76917  1.0000
  C           0.89039      0.51888      0.08157  1.0000
  C           0.80176      0.86121      0.15396  1.0000
  C           0.98292      0.22257      0.94804  1.0000
  C           0.77628      0.80460      0.34924  1.0000
  C           0.81978      0.69887      0.02519  1.0000
  C           0.15928      0.04154      0.60730  1.0000
  C           0.47778      0.26339      0.27612  1.0000
  C           0.43518      0.39991      0.12307  1.0000
  C           0.36735      0.08646      0.29149  1.0000
  C           0.62440      0.26692      0.39201  1.0000
  C           0.42293      0.20978      0.83184  1.0000
  C           0.64376      0.45428      0.85006  1.0000
  C           0.73792      0.96402      0.60214  1.0000
  C           0.10214      0.80286      0.04310  1.0000
  C           0.61660      0.53572      0.25424  1.0000
  C           0.57381      0.80757      0.38869  1.0000
  C           0.02714      0.20975      0.60299  1.0000
  C           0.63976      0.63951      0.93244  1.0000
  C           0.58837      0.82278      0.85243  1.0000
