data_cif

_audit_creation_method             'generated by GULP'

_symmetry_space_group_name_H-M     'P 1'
_symmetry_Int_Tables_number        1
_symmetry_cell_setting             triclinic

_cell_length_a                        7.6342
_cell_length_b                        7.6342
_cell_length_c                        7.6342
_cell_angle_alpha                   90.0000
_cell_angle_beta                    90.0000
_cell_angle_gamma                   90.0000

loop_
_atom_site_label
_atom_site_fract_x
_atom_site_fract_y
_atom_site_fract_z
_atom_site_occupancy
  C           0.02510      0.58715      0.36532  1.0000
  C           0.26082      0.10218      0.10679  1.0000
  C           0.10000      0.43948      0.26710  1.0000
  C           0.87923      0.96732      0.45268  1.0000
  C           0.47780      0.91609      0.98909  1.0000
  C           0.78599      0.44830      0.22142  1.0000
  C           0.91992      0.63457      0.71768  1.0000
  C           0.81038      0.55172      0.58943  1.0000
  C           0.13257      0.38047      0.63976  1.0000
  C           0.40561      0.76370      0.11749  1.0000
  C           0.88852      0.25465      0.74601  1.0000
  C           0.57220      0.89633      0.55705  1.0000
  C           0.42539      0.24088      0.63205  1.0000
  C           0.20225      0.98230      0.79772  1.0000
  C           0.52185      0.60779      0.40613  1.0000
  C           0.98879      0.93745      0.11951  1.0000
  C           0.13839      0.82066      0.85831  1.0000
  C           0.34969      0.68848      0.66326  1.0000
  C           0.73745      0.38251      0.68317  1.0000
  C           0.04388      0.26001      0.26491  1.0000
  C           0.93611      0.17464      0.42005  1.0000
  C           0.84383      0.61462      0.41522  1.0000
  C           0.48078      0.81594      0.68922  1.0000
  C           0.79420      0.29877      0.32879  1.0000
  C           0.66847      0.15832      0.01500  1.0000
  C           0.52042      0.60395      0.08856  1.0000
  C           0.60524      0.28058      0.57097  1.0000
  C           0.63532      0.98751      0.11788  1.0000
  C           0.48100      0.91570      0.24977  1.0000
  C           0.34019      0.05571      0.92308  1.0000
  C           0.80927      0.11095      0.88241  1.0000
  C           0.86306      0.76368      0.83740  1.0000
  C           0.30773      0.39550      0.57742  1.0000
  C           0.22829      0.68718      0.12358  1.0000
  C           0.07131      0.51165      0.77902  1.0000
  C           0.32585      0.10322      0.50852  1.0000
  C           0.11917      0.74191      0.42402  1.0000
  C           0.54276      0.31378      0.95662  1.0000
  C           0.06223      0.13251      0.10816  1.0000
  C           0.76916      0.94013      0.79596  1.0000
  C           0.39299      0.55747      0.53468  1.0000
  C           0.06783      0.89749      0.49797  1.0000
  C           0.99869      0.42911      0.95429  1.0000
  C           0.23974      0.50138      0.15777  1.0000
  C           0.19833      0.67091      0.76921  1.0000
  C           0.89040      0.51896      0.08160  1.0000
  C           0.80177      0.86129      0.15400  1.0000
  C           0.98294      0.22264      0.94808  1.0000
  C           0.77629      0.80467      0.34928  1.0000
  C           0.81979      0.69895      0.02522  1.0000
  C           0.15930      0.04160      0.60733  1.0000
  C           0.47779      0.26347      0.27616  1.0000
  C           0.43521      0.39999      0.12310  1.0000
  C           0.36736      0.08654      0.29154  1.0000
  C           0.62441      0.26701      0.39206  1.0000
  C           0.42294      0.20986      0.83188  1.0000
  C           0.64378      0.45437      0.85011  1.0000
  C           0.73794      0.96410      0.60218  1.0000
  C           0.10214      0.80293      0.04314  1.0000
  C           0.61662      0.53580      0.25429  1.0000
  C           0.57383      0.80765      0.38874  1.0000
  C           0.02715      0.20981      0.60302  1.0000
  C           0.63977      0.63959      0.93249  1.0000
  C           0.58838      0.82286      0.85248  1.0000
