data_cif

_audit_creation_method             'generated by GULP'

_symmetry_space_group_name_H-M     'P 1'
_symmetry_Int_Tables_number        1
_symmetry_cell_setting             triclinic

_cell_length_a                        7.5643
_cell_length_b                        7.5643
_cell_length_c                        7.5643
_cell_angle_alpha                   90.0000
_cell_angle_beta                    90.0000
_cell_angle_gamma                   90.0000

loop_
_atom_site_label
_atom_site_fract_x
_atom_site_fract_y
_atom_site_fract_z
_atom_site_occupancy
  C           0.08286      0.54642      0.42047  1.0000
  C           0.30316      0.09794      0.16046  1.0000
  C           0.13385      0.39787      0.32103  1.0000
  C           0.90784      0.92617      0.50308  1.0000
  C           0.49971      0.88767      0.03608  1.0000
  C           0.81666      0.44094      0.29345  1.0000
  C           0.94678      0.60615      0.76500  1.0000
  C           0.84289      0.51815      0.63262  1.0000
  C           0.15591      0.34821      0.69251  1.0000
  C           0.42017      0.73347      0.17045  1.0000
  C           0.91469      0.22094      0.79217  1.0000
  C           0.59832      0.86959      0.59684  1.0000
  C           0.45248      0.21347      0.66909  1.0000
  C           0.22742      0.95900      0.85670  1.0000
  C           0.54528      0.57610      0.44884  1.0000
  C           0.01507      0.92203      0.16891  1.0000
  C           0.17384      0.79322      0.92280  1.0000
  C           0.32354      0.69203      0.65140  1.0000
  C           0.76434      0.34665      0.71580  1.0000
  C           0.06473      0.22671      0.31632  1.0000
  C           0.94145      0.13795      0.45427  1.0000
  C           0.88414      0.57250      0.44283  1.0000
  C           0.48594      0.79585      0.72328  1.0000
  C           0.80180      0.23508      0.30633  1.0000
  C           0.72273      0.15093      0.11433  1.0000
  C           0.53155      0.57133      0.12588  1.0000
  C           0.62522      0.26410      0.58450  1.0000
  C           0.66485      0.95692      0.16138  1.0000
  C           0.51372      0.87533      0.29784  1.0000
  C           0.37142      0.03391      0.97448  1.0000
  C           0.84022      0.08342      0.94191  1.0000
  C           0.88619      0.73823      0.88119  1.0000
  C           0.33232      0.36990      0.62872  1.0000
  C           0.23779      0.66634      0.23883  1.0000
  C           0.09941      0.48208      0.83102  1.0000
  C           0.35921      0.06094      0.56260  1.0000
  C           0.20650      0.70836      0.45884  1.0000
  C           0.57956      0.28328      0.00250  1.0000
  C           0.09851      0.11075      0.15636  1.0000
  C           0.78489      0.91408      0.84811  1.0000
  C           0.40782      0.52677      0.56339  1.0000
  C           0.09755      0.86587      0.54918  1.0000
  C           0.07311      0.41254      0.02059  1.0000
  C           0.24068      0.45689      0.15509  1.0000
  C           0.20273      0.65548      0.80717  1.0000
  C           0.91948      0.50351      0.12975  1.0000
  C           0.83128      0.83237      0.19580  1.0000
  C           0.01783      0.21226      0.99404  1.0000
  C           0.81448      0.76940      0.39154  1.0000
  C           0.83741      0.67222      0.06567  1.0000
  C           0.18796      0.00955      0.66043  1.0000
  C           0.45938      0.21651      0.27464  1.0000
  C           0.43417      0.37934      0.13749  1.0000
  C           0.39107      0.02823      0.35720  1.0000
  C           0.62150      0.24295      0.40417  1.0000
  C           0.46951      0.17410      0.87213  1.0000
  C           0.67285      0.42479      0.88786  1.0000
  C           0.76266      0.93800      0.65091  1.0000
  C           0.13449      0.78708      0.10614  1.0000
  C           0.61567      0.48909      0.29495  1.0000
  C           0.61094      0.77014      0.43382  1.0000
  C           0.04987      0.17136      0.64367  1.0000
  C           0.65636      0.61145      0.97260  1.0000
  C           0.59905      0.79443      0.89068  1.0000
