data_cif

_audit_creation_method             'generated by GULP'

_symmetry_space_group_name_H-M     'P 1'
_symmetry_Int_Tables_number        1
_symmetry_cell_setting             triclinic

_cell_length_a                        7.6317
_cell_length_b                        7.6317
_cell_length_c                        7.6317
_cell_angle_alpha                   90.0000
_cell_angle_beta                    90.0000
_cell_angle_gamma                   90.0000

loop_
_atom_site_label
_atom_site_fract_x
_atom_site_fract_y
_atom_site_fract_z
_atom_site_occupancy
  C           0.47604      0.51988      0.06502  1.0000
  C           0.41006      0.73825      0.30705  1.0000
  C           0.29071      0.26095      0.91070  1.0000
  C           0.10440      0.00878      0.61538  1.0000
  C           0.95885      0.85443      0.88155  1.0000
  C           0.79598      0.47586      0.58169  1.0000
  C           0.61544      0.41441      0.67950  1.0000
  C           0.78916      0.71324      0.33476  1.0000
  C           0.88435      0.24506      0.32661  1.0000
  C           0.68736      0.15961      0.14149  1.0000
  C           0.87088      0.03749      0.36016  1.0000
  C           0.95073      0.93181      0.51992  1.0000
  C           0.51648      0.05791      0.15001  1.0000
  C           0.55173      0.97926      0.49665  1.0000
  C           0.46943      0.32907      0.00113  1.0000
  C           0.95046      0.34978      0.48763  1.0000
  C           0.16009      0.41870      0.83076  1.0000
  C           0.83193      0.73302      0.81466  1.0000
  C           0.91334      0.94753      0.03664  1.0000
  C           0.14412      0.91531      0.79521  1.0000
  C           0.87163      0.64672      0.65634  1.0000
  C           0.89107      0.12322      0.72752  1.0000
  C           0.49981      0.59927      0.41339  1.0000
  C           0.65219      0.70396      0.88305  1.0000
  C           0.64099      0.58685      0.02753  1.0000
  C           0.79076      0.97369      0.71975  1.0000
  C           0.47223      0.46075      0.57674  1.0000
  C           0.35956      0.64003      0.13945  1.0000
  C           0.59173      0.95251      0.69142  1.0000
  C           0.71587      0.33937      0.23409  1.0000
  C           0.00911      0.19611      0.15559  1.0000
  C           0.97094      0.39477      0.89449  1.0000
  C           0.50497      0.78712      0.78489  1.0000
  C           0.84939      0.13558      0.03408  1.0000
  C           0.35457      0.17562      0.71153  1.0000
  C           0.11455      0.47734      0.44713  1.0000
  C           0.18413      0.16446      0.08174  1.0000
  C           0.28183      0.39818      0.51701  1.0000
  C           0.10239      0.67250      0.42025  1.0000
  C           0.93367      0.49799      0.03787  1.0000
  C           0.83469      0.24463      0.87127  1.0000
  C           0.37441      0.21348      0.16859  1.0000
  C           0.39470      0.11556      0.50796  1.0000
  C           0.98034      0.71155      0.26642  1.0000
  C           0.39532      0.27659      0.36799  1.0000
  C           0.55703      0.39844      0.33858  1.0000
  C           0.30863      0.76384      0.78381  1.0000
  C           0.92813      0.89865      0.21244  1.0000
  C           0.76768      0.48494      0.10809  1.0000
  C           0.25440      0.80379      0.41436  1.0000
  C           0.70635      0.55138      0.40846  1.0000
  C           0.95623      0.74813      0.53312  1.0000
  C           0.23110      0.60507      0.86302  1.0000
  C           0.04161      0.61740      0.11283  1.0000
  C           0.62619      0.28584      0.84641  1.0000
  C           0.43882      0.01235      0.96915  1.0000
  C           0.52033      0.91184      0.28680  1.0000
  C           0.20535      0.64414      0.04559  1.0000
  C           0.03640      0.20949      0.61344  1.0000
  C           0.25691      0.96157      0.49295  1.0000
  C           0.71470      0.89432      0.37013  1.0000
  C           0.24275      0.00727      0.95412  1.0000
  C           0.51707      0.10028      0.80900  1.0000
  C           0.20005      0.30314      0.67001  1.0000
