data_cif

_audit_creation_method             'generated by GULP'

_symmetry_space_group_name_H-M     'P 1'
_symmetry_Int_Tables_number        1
_symmetry_cell_setting             triclinic

_cell_length_a                        7.5931
_cell_length_b                        7.5931
_cell_length_c                        7.5931
_cell_angle_alpha                   90.0000
_cell_angle_beta                    90.0000
_cell_angle_gamma                   90.0000

loop_
_atom_site_label
_atom_site_fract_x
_atom_site_fract_y
_atom_site_fract_z
_atom_site_occupancy
  C           0.47604      0.51988      0.06502  1.0000
  C           0.41109      0.73913      0.30551  1.0000
  C           0.29058      0.25972      0.91111  1.0000
  C           0.10517      0.00913      0.61413  1.0000
  C           0.96121      0.85306      0.88086  1.0000
  C           0.79656      0.47532      0.58019  1.0000
  C           0.61485      0.41577      0.67891  1.0000
  C           0.79052      0.71347      0.33115  1.0000
  C           0.88407      0.24656      0.32578  1.0000
  C           0.68609      0.16046      0.13975  1.0000
  C           0.87209      0.03918      0.35824  1.0000
  C           0.95144      0.93208      0.51775  1.0000
  C           0.51581      0.05794      0.14830  1.0000
  C           0.55271      0.97984      0.49484  1.0000
  C           0.46957      0.32876      0.00107  1.0000
  C           0.95061      0.35042      0.48631  1.0000
  C           0.16054      0.41802      0.82976  1.0000
  C           0.83389      0.73117      0.81457  1.0000
  C           0.91572      0.94809      0.03533  1.0000
  C           0.14515      0.91430      0.79290  1.0000
  C           0.87330      0.64553      0.65542  1.0000
  C           0.89138      0.12319      0.72581  1.0000
  C           0.50177      0.60140      0.41289  1.0000
  C           0.65326      0.70313      0.88189  1.0000
  C           0.64130      0.58724      0.02765  1.0000
  C           0.79135      0.97282      0.71923  1.0000
  C           0.47059      0.46544      0.57636  1.0000
  C           0.35961      0.64151      0.13799  1.0000
  C           0.59245      0.95146      0.68943  1.0000
  C           0.71575      0.33967      0.23398  1.0000
  C           0.00779      0.19281      0.15526  1.0000
  C           0.97084      0.39517      0.89261  1.0000
  C           0.50664      0.78548      0.78175  1.0000
  C           0.84767      0.13563      0.03155  1.0000
  C           0.35485      0.17471      0.71058  1.0000
  C           0.11494      0.47726      0.44525  1.0000
  C           0.18289      0.16087      0.08140  1.0000
  C           0.28217      0.39860      0.51633  1.0000
  C           0.10381      0.67251      0.41888  1.0000
  C           0.93426      0.49817      0.03685  1.0000
  C           0.83428      0.24550      0.86913  1.0000
  C           0.37235      0.21234      0.16809  1.0000
  C           0.39576      0.11650      0.50628  1.0000
  C           0.98230      0.71250      0.26473  1.0000
  C           0.39473      0.27657      0.36578  1.0000
  C           0.55565      0.39878      0.33794  1.0000
  C           0.31067      0.76257      0.77936  1.0000
  C           0.93235      0.90051      0.21171  1.0000
  C           0.76841      0.48553      0.10847  1.0000
  C           0.25548      0.80417      0.41306  1.0000
  C           0.70813      0.55095      0.40557  1.0000
  C           0.95706      0.74802      0.53172  1.0000
  C           0.23234      0.60447      0.86002  1.0000
  C           0.04261      0.61842      0.11055  1.0000
  C           0.62628      0.28608      0.84466  1.0000
  C           0.43978      0.00999      0.96764  1.0000
  C           0.52099      0.91225      0.28501  1.0000
  C           0.20605      0.64649      0.04231  1.0000
  C           0.03651      0.20983      0.61153  1.0000
  C           0.25791      0.96237      0.49151  1.0000
  C           0.71621      0.89484      0.36744  1.0000
  C           0.24365      0.00428      0.95320  1.0000
  C           0.51801      0.09925      0.80756  1.0000
  C           0.20073      0.30271      0.66882  1.0000
