data_cif

_audit_creation_method             'generated by GULP'

_symmetry_space_group_name_H-M     'P 1'
_symmetry_Int_Tables_number        1
_symmetry_cell_setting             triclinic

_cell_length_a                        7.6509
_cell_length_b                        7.6509
_cell_length_c                        7.6509
_cell_angle_alpha                   90.0000
_cell_angle_beta                    90.0000
_cell_angle_gamma                   90.0000

loop_
_atom_site_label
_atom_site_fract_x
_atom_site_fract_y
_atom_site_fract_z
_atom_site_occupancy
  C           0.47604      0.51988      0.06502  1.0000
  C           0.40957      0.73779      0.30784  1.0000
  C           0.29075      0.26142      0.91059  1.0000
  C           0.10404      0.00856      0.61603  1.0000
  C           0.95775      0.85501      0.88195  1.0000
  C           0.79572      0.47608      0.58245  1.0000
  C           0.61576      0.41367      0.67976  1.0000
  C           0.78854      0.71310      0.33650  1.0000
  C           0.88454      0.24428      0.32702  1.0000
  C           0.68794      0.15918      0.14233  1.0000
  C           0.87038      0.03660      0.36108  1.0000
  C           0.95041      0.93163      0.52099  1.0000
  C           0.51678      0.05784      0.15091  1.0000
  C           0.55131      0.97893      0.49743  1.0000
  C           0.46933      0.32919      0.00119  1.0000
  C           0.95045      0.34940      0.48829  1.0000
  C           0.15989      0.41893      0.83132  1.0000
  C           0.83103      0.73384      0.81475  1.0000
  C           0.91228      0.94717      0.03735  1.0000
  C           0.14369      0.91567      0.79634  1.0000
  C           0.87086      0.64724      0.65681  1.0000
  C           0.89098      0.12317      0.72837  1.0000
  C           0.49886      0.59817      0.41364  1.0000
  C           0.65171      0.70429      0.88361  1.0000
  C           0.64085      0.58664      0.02748  1.0000
  C           0.79055      0.97403      0.72005  1.0000
  C           0.47305      0.45846      0.57698  1.0000
  C           0.35955      0.63931      0.14017  1.0000
  C           0.59145      0.95292      0.69234  1.0000
  C           0.71595      0.33917      0.23415  1.0000
  C           0.00972      0.19727      0.15581  1.0000
  C           0.97100      0.39449      0.89545  1.0000
  C           0.50421      0.78779      0.78636  1.0000
  C           0.85013      0.13541      0.03527  1.0000
  C           0.35445      0.17591      0.71212  1.0000
  C           0.11443      0.47734      0.44811  1.0000
  C           0.18473      0.16598      0.08192  1.0000
  C           0.28174      0.39792      0.51741  1.0000
  C           0.10173      0.67244      0.42096  1.0000
  C           0.93339      0.49783      0.03841  1.0000
  C           0.83492      0.24414      0.87233  1.0000
  C           0.37540      0.21400      0.16882  1.0000
  C           0.39423      0.11504      0.50883  1.0000
  C           0.97943      0.71102      0.26726  1.0000
  C           0.39565      0.27656      0.36913  1.0000
  C           0.55783      0.39821      0.33902  1.0000
  C           0.30768      0.76433      0.78593  1.0000
  C           0.92619      0.89767      0.21285  1.0000
  C           0.76733      0.48461      0.10793  1.0000
  C           0.25389      0.80356      0.41504  1.0000
  C           0.70550      0.55160      0.40992  1.0000
  C           0.95583      0.74815      0.53381  1.0000
  C           0.23052      0.60528      0.86450  1.0000
  C           0.04115      0.61681      0.11396  1.0000
  C           0.62609      0.28564      0.84730  1.0000
  C           0.43844      0.01334      0.96993  1.0000
  C           0.52003      0.91164      0.28784  1.0000
  C           0.20503      0.64299      0.04717  1.0000
  C           0.03640      0.20927      0.61439  1.0000
  C           0.25645      0.96113      0.49370  1.0000
  C           0.71405      0.89402      0.37142  1.0000
  C           0.24240      0.00856      0.95458  1.0000
  C           0.51669      0.10063      0.80973  1.0000
  C           0.19981      0.30326      0.67065  1.0000
